data_image0
_chemical_formula_structural       AlPAlPAlPAlPAlPAlPAlPAlPAlPAlPAlPAlPAlPAlPAlPAlPAlPAlPAlPAlPAlPAlPAlPAlPAlPAlPAlPAlPAlPAlPAlPAlPAlPAlPAlPAlPAlPAlPAlPAlPAlPAlPAlPAlPAlPAlPAlPAlPAlPAlPAlPAlPAlPAlPAlPAlPAlPAlPAlPAlPAlPAlPAlPAlPAlPAlPAlPAlPAlPAlPAlPAlPAlPAlPAlPAlPAlPAlPAlPAlPAlPAlPAlPAlPAlPAlPAlPAlPAlPAlPAlPAlPAlPAlPAlPAlPAlPAlPAlPAlPAlPAlPAlPAlPAlPAlPAlPAlPAlPAlPAlPAlPAlPAlPAlPAlPAlPAlPAlPAlPAlPAlPAlPAlPAlPAlPAlPAlPAlPAlPAlPAlPAlPAlPAlPAlPAlPAlPAlPAlPAlPAlPAlPAlPAlPAlPAlPAlPAlPAlPAlPAlPAlPAlPAlPAlPAlPAlPAlPAlPAlPAlPAlPAlPAlPAlPAlPAlPAlPAlPAlPAlPAlPAlPAlPAlPAlPAlPAlPAlPAlPAlPAlPAlPAlPAlPAlPAlPAlPAlPAlPAlPAlPAlPAlPAlPAlPAlPAlPAlPAlPAlPAlPAlPAlPAlPAlPAlPAlPAlPAlPAlPAlPAlPAlPAlPAlPAlPAlPAlPAlPAlPAlPAlPAlPAlPAlPAlPAlPAlPAlPAlPAlPAlPAlPAlPAlPAlPAlPAlPAlPAlPAlPAlPAlPAlPAlPAlPAlPAlPAlPAlPAlPAlPAlPAlPAlPAlPAlPAlPAlPAlPAlPAlPAlPAlPAlPAlPAlPAlPAlPAlPAlPAlPAlPAlPAlPAlPAlPAlPAlPAlPAlPAlPAlPAlPAlPAlPAlPAlPAlPAlPAlPAlPAlPAlPAlPAlPAlPAlPAlPAlPAlPAlPAlPAlPAlPAlPAlPAlPAlPAlPAlPAlPAlPAlPAlPAlPAlPAlPAlPAlPAlPAlPAlPAlPAlPAlPAlPAlPAlPAlPAlPAlPAlPAlPAlPAlPAlPAlPAlPAlPAlPAlPAlPAlPAlPAlPAlPAlPAlPAlPAlPAlPAlPAlPAlPAlPAlPAlPAlPAlPAlPAlPAlPAlPAlPAlPAlPAlPAlPAlPAlPAlPAlPAlPAlPAlPAlPAlPAlPAlPAlPAlPAlPAlP
_chemical_formula_sum              "Al386 P386"
_cell_length_a       20.0
_cell_length_b       20.0
_cell_length_c       94.60754356815316
_cell_angle_alpha    90.0
_cell_angle_beta     90.0
_cell_angle_gamma    90.0

_space_group_name_H-M_alt    "P 1"
_space_group_IT_number       1

loop_
  _space_group_symop_operation_xyz
  'x, y, z'

loop_
  _atom_site_type_symbol
  _atom_site_label
  _atom_site_symmetry_multiplicity
  _atom_site_fract_x
  _atom_site_fract_y
  _atom_site_fract_z
  _atom_site_occupancy
  Al  Al1       1.0  0.9346656041166579  0.5  0.0008635578583765274  1.0000
  P   P1        1.0  0.9200069494112363  0.6119301114462345  0.9991364421416236  1.0000
  Al  Al2       1.0  0.9346080202508298  0.5070750360955709  0.5215889464594128  1.0000
  P   P2        1.0  0.9181294251839772  0.6187517208187573  0.5198618307426598  1.0000
  Al  Al3       1.0  0.934435283910598  0.5141481976101978  0.042314335060449154  1.0000
  P   P3        1.0  0.9161411146028376  0.6255418660814276  0.040587219343696135  1.0000
  Al  Al4       1.0  0.9341474408636806  0.52121761045962  0.5630397236614856  1.0000
  P   P4        1.0  0.9140425444847946  0.6322987481371461  0.5613126079447325  1.0000
  Al  Al5       1.0  0.9337445673761318  0.5282814015528124  0.08376511226252178  1.0000
  P   P5        1.0  0.9118342708608703  0.6390205767021361  0.08203799654576877  1.0000
  Al  Al6       1.0  0.9332267701921371  0.5353376992882741  0.604490500863558  1.0000
  P   P6        1.0  0.9095168788288082  0.6457055707802912  0.6027633851468049  1.0000
  Al  Al7       1.0  0.9325941865057289  0.5423846340499223  0.12521588946459442  1.0000
  P   P7        1.0  0.9070909823980471  0.6523519591350637  0.1234887737478414  1.0000
  Al  Al8       1.0  0.9318469839244374  0.5494203387024603  0.6459412780656304  1.0000
  P   P8        1.0  0.9045572243270352  0.6589579807587657  0.6442141623488773  1.0000
  Al  Al9       1.0  0.9309853604248808  0.5564429490860888  0.16666666666666705  1.0000
  P   P9        1.0  0.9019162759529267  0.6655218853391605  0.16493955094991403  1.0000
  Al  Al10      1.0  0.9300095443003102  0.5634506045104275  0.6873920552677035  1.0000
  P   P10       1.0  0.8991688370137055  0.6720419337232206  0.6856649395509505  1.0000
  Al  Al11      1.0  0.9289197941001224  0.5704414482475185  0.20811744386873968  1.0000
  P   P11       1.0  0.8963156354627859  0.6785163983779289  0.20639032815198666  1.0000
  Al  Al12      1.0  0.9277163985613541  0.5774136280237799  0.7288428324697762  1.0000
  P   P12       1.0  0.8933574272761353  0.6849435638479995  0.7271157167530232  1.0000
  Al  Al13      1.0  0.92639967653218  0.584365296510778  0.2495682210708123  1.0000
  P   P13       1.0  0.8902949962519735  0.6913217272104013  0.2478411053540593  1.0000
  Al  Al14      1.0  0.9249699768874315  0.5912946118146908  0.7702936096718488  1.0000
  P   P14       1.0  0.887129153803099  0.6976491985255587  0.7685664939550958  1.0000
  Al  Al15      1.0  0.9234276784361598  0.5981997379643307  0.29101899827288435  1.0000
  P   P15       1.0  0.8838607387419005  0.703924301285113  0.2892918825561313  1.0000
  Al  Al16      1.0  0.9217731898212677  0.6050788453975975  0.8117443868739209  1.0000
  P   P16       1.0  0.8804906170581073  0.7101453728561256  0.8100172711571679  1.0000
  Al  Al17      1.0  0.9200069494112363  0.6119301114462345  0.33246977547495754  1.0000
  P   P17       1.0  0.8770196816893382  0.7163107649216038  0.33074265975820455  1.0000
  Al  Al18      1.0  0.9181294251839772  0.6187517208187573  0.8531951640759942  1.0000
  P   P18       1.0  0.8734488522845129  0.7224188439172349  0.8514680483592411  1.0000
  Al  Al19      1.0  0.9161411146028376  0.6255418660814276  0.3739205526770308  1.0000
  P   P19       1.0  0.8697790749601833  0.7284679914642098  0.3721934369602777  1.0000
  Al  Al20      1.0  0.9140425444847946  0.6322987481371461  0.8946459412780661  1.0000
  P   P20       1.0  0.8660113220498543  0.7344566047980243  0.8929188255613131  1.0000
  Al  Al21      1.0  0.9118342708608703  0.6390205767021361  0.4153713298791028  1.0000
  P   P21       1.0  0.8621465918463559  0.7403830971931433  0.41364421416234975  1.0000
  Al  Al22      1.0  0.9095168788288082  0.6457055707802912  0.9360967184801394  1.0000
  P   P22       1.0  0.858185908337339  0.7462458983834138  0.9343696027633863  1.0000
  Al  Al23      1.0  0.9070909823980471  0.6523519591350637  0.4568221070811748  1.0000
  P   P23       1.0  0.8541303209339635  0.7520434549781193  0.4550949913644218  1.0000
  Al  Al24      1.0  0.9045572243270352  0.6589579807587657  0.9775474956822113  1.0000
  P   P24       1.0  0.8499809041928472  0.7577742308735615  0.9758203799654583  1.0000
  Al  Al25      1.0  0.9019162759529267  0.6655218853391605  0.49827288428324806  1.0000
  P   P25       1.0  0.8457387575313574  0.763436707660061  0.496545768566495  1.0000
  Al  Al26      1.0  0.8991688370137055  0.6720419337232206  0.018998272884284767  1.0000
  P   P26       1.0  0.8414050049363095  0.7690293850242713  0.017271157167531748  1.0000
  Al  Al27      1.0  0.8963156354627859  0.6785163983779289  0.5397236614853214  1.0000
  P   P27       1.0  0.8369807946661609  0.7745507811466977  0.5379965457685683  1.0000
  Al  Al28      1.0  0.8933574272761353  0.6849435638479995  0.0604490500863556  1.0000
  P   P28       1.0  0.8324672989467704  0.7799994330943154  0.05872193436960258  1.0000
  Al  Al29      1.0  0.8902949962519735  0.6913217272104013  0.5811744386873922  1.0000
  P   P29       1.0  0.8278657136608095  0.7853738972081842  0.5794473229706392  1.0000
  Al  Al30      1.0  0.887129153803099  0.6976491985255587  0.10189982728842883  1.0000
  P   P30       1.0  0.8231772580309045  0.790672749485956  0.10017271157167582  1.0000
  Al  Al31      1.0  0.8838607387419005  0.703924301285113  0.6226252158894653  1.0000
  P   P31       1.0  0.8184031742965949  0.7958945859591746  0.6208981001727123  1.0000
  Al  Al32      1.0  0.8804906170581073  0.7101453728561256  0.14335060449050205  1.0000
  P   P32       1.0  0.8135447273851932  0.8010380230652667  0.14162348877374903  1.0000
  Al  Al33      1.0  0.8770196816893382  0.7163107649216038  0.6640759930915385  1.0000
  P   P33       1.0  0.8086032045766333  0.806101698014127  0.6623488773747855  1.0000
  Al  Al34      1.0  0.8734488522845129  0.722418843917235  0.1848013816925753  1.0000
  P   P34       1.0  0.8035799151623966  0.8110842691491991  0.18307426597582227  1.0000
  Al  Al35      1.0  0.8697790749601835  0.7284679914642098  0.7055267702936118  1.0000
  P   P35       1.0  0.7984761900986062  0.8159844163029562  0.7037996545768588  1.0000
  Al  Al36      1.0  0.8660113220498543  0.7344566047980243  0.2262521588946485  1.0000
  P   P36       1.0  0.7932933816533807  0.8208008411466896  0.22452504317789548  1.0000
  Al  Al37      1.0  0.8621465918463559  0.7403830971931433  0.746977547495685  1.0000
  P   P37       1.0  0.7880328630485405  0.8255322675345103  0.7452504317789319  1.0000
  Al  Al38      1.0  0.8581859083373392  0.7462458983834137  0.26770293609672174  1.0000
  P   P38       1.0  0.7826960280957638  0.8301774418414717  0.26597582037996875  1.0000
  Al  Al39      1.0  0.8541303209339635  0.7520434549781193  0.7884283246977559  1.0000
  P   P39       1.0  0.7772842908272856  0.8347351332957276  0.7867012089810028  1.0000
  Al  Al40      1.0  0.8499809041928472  0.7577742308735615  0.3091537132987926  1.0000
  P   P40       1.0  0.7717990851212403  0.8392041343046337  0.30742659758203955  1.0000
  Al  Al41      1.0  0.8457387575313574  0.763436707660061  0.829879101899829  1.0000
  P   P41       1.0  0.7662418643217455  0.8435832607747072  0.8281519861830761  1.0000
  Al  Al42      1.0  0.8414050049363095  0.7690293850242713  0.3506044905008658  1.0000
  P   P42       1.0  0.7606141008538281  0.8478713524253613  0.34887737478411274  1.0000
  Al  Al43      1.0  0.8369807946661609  0.7745507811466977  0.8713298791019024  1.0000
  P   P43       1.0  0.7549172858332946  0.8520672730963297  0.8696027633851493  1.0000
  Al  Al44      1.0  0.8324672989467704  0.7799994330943154  0.39205526770293664  1.0000
  P   P44       1.0  0.74915292867165  0.8561699110487  0.3903281519861836  1.0000
  Al  Al45      1.0  0.8278657136608095  0.7853738972081842  0.9127806563039732  1.0000
  P   P45       1.0  0.7433225566761676  0.8601781792594775  0.9110535405872201  1.0000
  Al  Al46      1.0  0.8231772580309045  0.790672749485956  0.4335060449050099  1.0000
  P   P46       1.0  0.7374277146452193  0.8640910157095991  0.43177892918825683  1.0000
  Al  Al47      1.0  0.8184031742965949  0.7958945859591746  0.9542314335060464  1.0000
  P   P47       1.0  0.7314699644589692  0.8679073836653224  0.9525043177892935  1.0000
  Al  Al48      1.0  0.8135447273851932  0.8010380230652667  0.4749568221070831  1.0000
  P   P48       1.0  0.7254508846655432  0.8716262719529166  0.4732297063903301  1.0000
  Al  Al49      1.0  0.8086032045766333  0.806101698014127  0.9956822107081197  1.0000
  P   P49       1.0  0.719372070062781  0.8752466952265796  0.9939550949913666  1.0000
  Al  Al50      1.0  0.8035799151623966  0.8110842691491991  0.5164075993091563  1.0000
  P   P50       1.0  0.7132351312756834  0.8787676942295122  0.5146804835924033  1.0000
  Al  Al51      1.0  0.7984761900986062  0.8159844163029562  0.03713298791019301  1.0000
  P   P51       1.0  0.7070416943296659  0.8821883360480804  0.035405872193439984  1.0000
  Al  Al52      1.0  0.7932933816533807  0.8208008411466896  0.5578583765112295  1.0000
  P   P52       1.0  0.7007934002197307  0.8855077143589973  0.5561312607944765  1.0000
  Al  Al53      1.0  0.7880328630485405  0.8255322675345103  0.07858376511226624  1.0000
  P   P53       1.0  0.6944919044756752  0.8887249496694598  0.07685664939551322  1.0000
  Al  Al54      1.0  0.7826960280957638  0.8301774418414717  0.5993091537133027  1.0000
  P   P54       1.0  0.6881388767234465  0.8918391895501764  0.5975820379965497  1.0000
  Al  Al55      1.0  0.7772842908272856  0.8347351332957276  0.12003454231433468  1.0000
  P   P55       1.0  0.681736000242762  0.8948496088612246  0.11830742659758166  1.0000
  Al  Al56      1.0  0.7717990851212403  0.8392041343046337  0.6407599309153712  1.0000
  P   P56       1.0  0.6752849715211132  0.8977554099706776  0.6390328151986182  1.0000
  Al  Al57      1.0  0.7662418643217456  0.8435832607747072  0.1614853195164079  1.0000
  P   P57       1.0  0.6687874998042692  0.9005558229659419  0.15975820379965489  1.0000
  Al  Al58      1.0  0.7606141008538281  0.8478713524253613  0.6822107081174443  1.0000
  P   P58       1.0  0.6622453066433993  0.9032501058577523  0.6804835924006913  1.0000
  Al  Al59      1.0  0.7549172858332946  0.8520672730963297  0.20293609671848115  1.0000
  P   P59       1.0  0.6556601254389367  0.9058375447767664  0.20120898100172813  1.0000
  Al  Al60      1.0  0.74915292867165  0.8561699110487  0.7236614853195177  1.0000
  P   P60       1.0  0.6490337009813011  0.9083174541627083  0.7219343696027647  1.0000
  Al  Al61      1.0  0.7433225566761676  0.8601781792594775  0.24438687392055433  1.0000
  P   P61       1.0  0.6423677889886044  0.9106891769460153  0.24265975820380134  1.0000
  Al  Al62      1.0  0.7374277146452193  0.8640910157095991  0.7651122625215909  1.0000
  P   P62       1.0  0.6356641556414608  0.9129520847219308  0.7633851468048378  1.0000
  Al  Al63      1.0  0.7314699644589692  0.8679073836653224  0.2858376511226276  1.0000
  P   P63       1.0  0.6289245771150247  0.9151055779170056  0.28411053540587455  1.0000
  Al  Al64      1.0  0.7254508846655431  0.8716262719529166  0.8065630397236642  1.0000
  P   P64       1.0  0.6221508391083799  0.9171490859479592  0.8048359240069112  1.0000
  Al  Al65      1.0  0.719372070062781  0.8752466952265796  0.32728842832470084  1.0000
  P   P65       1.0  0.6153447363714072  0.9190820673728592  0.3255613126079478  1.0000
  Al  Al66      1.0  0.7132351312756835  0.8787676942295122  0.8480138169257374  1.0000
  P   P66       1.0  0.608508072229252  0.920904010034581  0.8462867012089843  1.0000
  Al  Al67      1.0  0.7070416943296657  0.8821883360480804  0.3687392055267741  1.0000
  P   P67       1.0  0.6016426581045198  0.9226144311965068  0.36701208981002104  1.0000
  Al  Al68      1.0  0.7007934002197307  0.8855077143589973  0.8894645941278105  1.0000
  P   P68       1.0  0.5947503130373284  0.9242128776704303  0.8877374784110574  1.0000
  Al  Al69      1.0  0.6944919044756753  0.8887249496694598  0.41018998272884727  1.0000
  P   P69       1.0  0.5878328632033397  0.9256989259366325  0.40846286701209417  1.0000
  Al  Al70      1.0  0.6881388767234464  0.8918391895501764  0.9309153713298839  1.0000
  P   P70       1.0  0.5808921414299008  0.927072182256096  0.9291882556131308  1.0000
  Al  Al71      1.0  0.681736000242762  0.8948496088612246  0.4516407599309205  1.0000
  P   P71       1.0  0.5739299867104245  0.9283322827748285  0.4499136442141674  1.0000
  Al  Al72      1.0  0.6752849715211133  0.8977554099706775  0.972366148531957  1.0000
  P   P72       1.0  0.5669482437171347  0.9294788936202689  0.9706390328152039  1.0000
  Al  Al73      1.0  0.6687874998042691  0.9005558229659419  0.49309153713299375  1.0000
  P   P73       1.0  0.5599487623123065  0.9305117109897497  0.49136442141624065  1.0000
  Al  Al74      1.0  0.6622453066433993  0.9032501058577523  0.01381692573403042  1.0000
  P   P74       1.0  0.5529333970581337  0.9314304612309905  0.012089810017277398  1.0000
  Al  Al75      1.0  0.6556601254389367  0.9058375447767661  0.5345423143350669  1.0000
  P   P75       1.0  0.5459040067253481  0.9322349009146049  0.532815198618314  1.0000
  Al  Al76      1.0  0.6490337009813011  0.9083174541627083  0.055267702936098846  1.0000
  P   P76       1.0  0.5388624538007253  0.9329248168985992  0.05354058721934583  1.0000
  Al  Al77      1.0  0.6423677889886044  0.9106891769460153  0.5759930915371354  1.0000
  P   P77       1.0  0.5318106039936059  0.9335000263848449  0.5742659758203823  1.0000
  Al  Al78      1.0  0.6356641556414608  0.9129520847219308  0.09671848013817207  1.0000
  P   P78       1.0  0.524750325741563  0.9339603769675127  0.09499136442141905  1.0000
  Al  Al79      1.0  0.6289245771150246  0.9151055779170059  0.6174438687392086  1.0000
  P   P79       1.0  0.517683489715345  0.9343057466734541  0.6157167530224555  1.0000
  Al  Al80      1.0  0.6221508391083799  0.9171490859479592  0.1381692573402453  1.0000
  P   P80       1.0  0.5106119683232295  0.9345360439945183  0.13644214162349227  1.0000
  Al  Al81      1.0  0.6153447363714072  0.9190820673728592  0.6588946459412818  1.0000
  P   P81       1.0  0.5035376352149152  0.9346512079117982  0.6571675302245288  1.0000
  Al  Al82      1.0  0.6085080722292519  0.920904010034581  0.17962003454231854  1.0000
  P   P82       1.0  0.49646236478508476  0.9346512079117982  0.17789291882556552  1.0000
  Al  Al83      1.0  0.6016426581045198  0.9226144311965068  0.700345423143355  1.0000
  P   P83       1.0  0.4893880316767704  0.9345360439945183  0.698618307426602  1.0000
  Al  Al84      1.0  0.5947503130373284  0.9242128776704303  0.22107081174439178  1.0000
  P   P84       1.0  0.48231651028465494  0.9343057466734541  0.21934369602763876  1.0000
  Al  Al85      1.0  0.5878328632033396  0.9256989259366325  0.7417962003454284  1.0000
  P   P85       1.0  0.4752496742584371  0.9339603769675127  0.7400690846286754  1.0000
  Al  Al86      1.0  0.5808921414299008  0.927072182256096  0.26252158894646016  1.0000
  P   P86       1.0  0.4681893960063939  0.9335000263848449  0.26079447322970717  1.0000
  Al  Al87      1.0  0.5739299867104245  0.9283322827748285  0.7832469775474967  1.0000
  P   P87       1.0  0.4611375461992746  0.9329248168985992  0.7815198618307437  1.0000
  Al  Al88      1.0  0.5669482437171346  0.9294788936202689  0.3039723661485334  1.0000
  P   P88       1.0  0.45409599327465194  0.9322349009146049  0.3022452504317804  1.0000
  Al  Al89      1.0  0.5599487623123065  0.9305117109897497  0.82469775474957  1.0000
  P   P89       1.0  0.4470666029418662  0.9314304612309905  0.8229706390328169  1.0000
  Al  Al90      1.0  0.5529333970581337  0.9314304612309905  0.34542314335060664  1.0000
  P   P90       1.0  0.44005123768769333  0.9305117109897497  0.3436960276338536  1.0000
  Al  Al91      1.0  0.545904006725348  0.9322349009146049  0.8661485319516432  1.0000
  P   P91       1.0  0.43305175628286546  0.9294788936202689  0.8644214162348902  1.0000
  Al  Al92      1.0  0.5388624538007253  0.9329248168985992  0.3868739205526799  1.0000
  P   P92       1.0  0.4260700132895754  0.9283322827748285  0.38514680483592684  1.0000
  Al  Al93      1.0  0.5318106039936059  0.9335000263848449  0.9075993091537164  1.0000
  P   P93       1.0  0.41910785857009913  0.927072182256096  0.9058721934369633  1.0000
  Al  Al94      1.0  0.524750325741563  0.9339603769675127  0.4283246977547531  1.0000
  P   P94       1.0  0.4121671367966604  0.9256989259366325  0.4265975820380001  1.0000
  Al  Al95      1.0  0.517683489715345  0.9343057466734541  0.9490500863557897  1.0000
  P   P95       1.0  0.40524968696267155  0.9242128776704303  0.9473229706390367  1.0000
  Al  Al96      1.0  0.5106119683232295  0.9345360439945183  0.46977547495682637  1.0000
  P   P96       1.0  0.39835734189548017  0.9226144311965068  0.4680483592400733  1.0000
  Al  Al97      1.0  0.5035376352149153  0.9346512079117982  0.9905008635578629  1.0000
  P   P97       1.0  0.39149192777074815  0.920904010034581  0.9887737478411098  1.0000
  Al  Al98      1.0  0.49646236478508476  0.9346512079117982  0.5112262521588996  1.0000
  P   P98       1.0  0.3846552636285927  0.9190820673728592  0.5094991364421465  1.0000
  Al  Al99      1.0  0.4893880316767704  0.9345360439945183  0.031951640759936256  1.0000
  P   P99       1.0  0.3778491608916201  0.9171490859479592  0.030224525043183237  1.0000
  Al  Al100     1.0  0.48231651028465505  0.9343057466734541  0.5526770293609727  1.0000
  P   P100      1.0  0.3710754228849755  0.9151055779170059  0.5509499136442197  1.0000
  Al  Al101     1.0  0.4752496742584371  0.9339603769675127  0.0734024179620095  1.0000
  P   P101      1.0  0.36433584435853916  0.9129520847219308  0.07167530224525648  1.0000
  Al  Al102     1.0  0.4681893960063939  0.9335000263848449  0.594127806563046  1.0000
  P   P102      1.0  0.3576322110113955  0.9106891769460153  0.592400690846293  1.0000
  Al  Al103     1.0  0.4611375461992747  0.9329248168985992  0.11485319516408271  1.0000
  P   P103      1.0  0.3509662990186989  0.9083174541627083  0.11312607944732969  1.0000
  Al  Al104     1.0  0.45409599327465194  0.9322349009146049  0.6355785837651192  1.0000
  P   P104      1.0  0.3443398745610633  0.9058375447767661  0.6338514680483662  1.0000
  Al  Al105     1.0  0.4470666029418662  0.9314304612309905  0.15630397236615595  1.0000
  P   P105      1.0  0.33775469335660063  0.9032501058577523  0.15457685664940293  1.0000
  Al  Al106     1.0  0.44005123768769344  0.9305117109897497  0.6770293609671925  1.0000
  P   P106      1.0  0.3312125001957309  0.9005558229659419  0.6753022452504395  1.0000
  Al  Al107     1.0  0.43305175628286546  0.9294788936202689  0.1977547495682292  1.0000
  P   P107      1.0  0.3247150284788868  0.8977554099706775  0.19602763385147617  1.0000
  Al  Al108     1.0  0.4260700132895754  0.9283322827748285  0.7184801381692562  1.0000
  P   P108      1.0  0.31826399975723796  0.8948496088612246  0.716753022452503  1.0000
  Al  Al109     1.0  0.4191078585700993  0.927072182256096  0.2392055267702928  1.0000
  P   P109      1.0  0.3118611232765536  0.8918391895501764  0.23747841105353978  1.0000
  Al  Al110     1.0  0.4121671367966604  0.9256989259366325  0.7599309153713293  1.0000
  P   P110      1.0  0.3055080955243248  0.8887249496694598  0.7582037996545763  1.0000
  Al  Al111     1.0  0.40524968696267155  0.9242128776704303  0.280656303972366  1.0000
  P   P111      1.0  0.29920659978026926  0.8855077143589972  0.278929188255613  1.0000
  Al  Al112     1.0  0.3983573418954803  0.9226144311965068  0.8013816925734026  1.0000
  P   P112      1.0  0.2929583056703343  0.8821883360480804  0.7996545768566495  1.0000
  Al  Al113     1.0  0.39149192777074815  0.920904010034581  0.32210708117443926  1.0000
  P   P113      1.0  0.2867648687243165  0.8787676942295122  0.32037996545768627  1.0000
  Al  Al114     1.0  0.3846552636285927  0.9190820673728592  0.8428324697754758  1.0000
  P   P114      1.0  0.2806279299372189  0.8752466952265796  0.8411053540587228  1.0000
  Al  Al115     1.0  0.37784916089162013  0.9171490859479592  0.3635578583765125  1.0000
  P   P115      1.0  0.2745491153344569  0.8716262719529166  0.36183074265975945  1.0000
  Al  Al116     1.0  0.3710754228849754  0.9151055779170056  0.8842832469775491  1.0000
  P   P116      1.0  0.26853003554103083  0.8679073836653224  0.882556131260796  1.0000
  Al  Al117     1.0  0.36433584435853916  0.9129520847219308  0.40500863557858574  1.0000
  P   P117      1.0  0.26257228535478067  0.864091015709599  0.4032815198618327  1.0000
  Al  Al118     1.0  0.3576322110113956  0.9106891769460153  0.9257340241796223  1.0000
  P   P118      1.0  0.25667744332383247  0.8601781792594775  0.9240069084628693  1.0000
  Al  Al119     1.0  0.3509662990186988  0.9083174541627081  0.4464594127806589  1.0000
  P   P119      1.0  0.25084707132835005  0.8561699110487  0.4447322970639059  1.0000
  Al  Al120     1.0  0.3443398745610633  0.9058375447767661  0.9671848013816955  1.0000
  P   P120      1.0  0.24508271416670527  0.8520672730963295  0.9654576856649424  1.0000
  Al  Al121     1.0  0.3377546933566007  0.9032501058577523  0.48791018998273217  1.0000
  P   P121      1.0  0.23938589914617192  0.8478713524253613  0.4861830742659791  1.0000
  Al  Al122     1.0  0.3312125001957308  0.9005558229659418  0.008635578583768863  1.0000
  P   P122      1.0  0.23375813567825451  0.8435832607747072  0.0069084628670158426  1.0000
  Al  Al123     1.0  0.3247150284788868  0.8977554099706775  0.5293609671848054  1.0000
  P   P123      1.0  0.22820091487875974  0.8392041343046337  0.5276338514680523  1.0000
  Al  Al124     1.0  0.31826399975723796  0.8948496088612246  0.05008635578584209  1.0000
  P   P124      1.0  0.22271570917271444  0.8347351332957276  0.04835924006908908  1.0000
  Al  Al125     1.0  0.3118611232765536  0.8918391895501764  0.5708117443868787  1.0000
  P   P125      1.0  0.21730397190423628  0.8301774418414717  0.5690846286701255  1.0000
  Al  Al126     1.0  0.3055080955243248  0.8887249496694598  0.09153713298791533  1.0000
  P   P126      1.0  0.2119671369514595  0.82553226753451  0.0898100172711623  1.0000
  Al  Al127     1.0  0.29920659978026926  0.8855077143589972  0.6122625215889519  1.0000
  P   P127      1.0  0.20670661834661927  0.8208008411466894  0.6105354058721988  1.0000
  Al  Al128     1.0  0.2929583056703343  0.8821883360480804  0.13298791018998854  1.0000
  P   P128      1.0  0.20152380990139376  0.8159844163029562  0.13126079447323555  1.0000
  Al  Al129     1.0  0.2867648687243165  0.8787676942295122  0.6537132987910251  1.0000
  P   P129      1.0  0.1964200848376034  0.811084269149199  0.651986183074272  1.0000
  Al  Al130     1.0  0.2806279299372189  0.8752466952265796  0.17443868739206178  1.0000
  P   P130      1.0  0.19139679542336668  0.806101698014127  0.17271157167530876  1.0000
  Al  Al131     1.0  0.2745491153344569  0.8716262719529166  0.6951640759930983  1.0000
  P   P131      1.0  0.18645527261480674  0.8010380230652667  0.6934369602763453  1.0000
  Al  Al132     1.0  0.26853003554103083  0.8679073836653224  0.21588946459413502  1.0000
  P   P132      1.0  0.18159682570340496  0.7958945859591745  0.214162348877382  1.0000
  Al  Al133     1.0  0.26257228535478067  0.864091015709599  0.7366148531951716  1.0000
  P   P133      1.0  0.17682274196909537  0.7906727494859558  0.7348877374784185  1.0000
  Al  Al134     1.0  0.25667744332383247  0.8601781792594775  0.2573402417962083  1.0000
  P   P134      1.0  0.1721342863391905  0.7853738972081841  0.25561312607945524  1.0000
  Al  Al135     1.0  0.25084707132835005  0.8561699110487  0.7780656303972447  1.0000
  P   P135      1.0  0.16753270105322962  0.7799994330943153  0.7763385146804918  1.0000
  Al  Al136     1.0  0.24508271416670527  0.8520672730963295  0.2987910189982815  1.0000
  P   P136      1.0  0.16301920533383904  0.7745507811466976  0.29706390328152843  1.0000
  Al  Al137     1.0  0.23938589914617192  0.8478713524253613  0.819516407599318  1.0000
  P   P137      1.0  0.15859499506369043  0.7690293850242713  0.8177892918825649  1.0000
  Al  Al138     1.0  0.23375813567825451  0.8435832607747072  0.34024179620035466  1.0000
  P   P138      1.0  0.15426124246864248  0.7634367076600609  0.3385146804836016  1.0000
  Al  Al139     1.0  0.22820091487875974  0.8392041343046337  0.8609671848013912  1.0000
  P   P139      1.0  0.15001909580715256  0.7577742308735614  0.8592400690846382  1.0000
  Al  Al140     1.0  0.22271570917271455  0.8347351332957276  0.3816925734024279  1.0000
  P   P140      1.0  0.1458696790660366  0.7520434549781193  0.37996545768567486  1.0000
  Al  Al141     1.0  0.21730397190423628  0.8301774418414717  0.9024179620034645  1.0000
  P   P141      1.0  0.1418140916626609  0.7462458983834136  0.9006908462867114  1.0000
  Al  Al142     1.0  0.2119671369514595  0.82553226753451  0.42314335060450115  1.0000
  P   P142      1.0  0.13785340815364408  0.7403830971931431  0.4214162348877481  1.0000
  Al  Al143     1.0  0.2067066183466194  0.8208008411466896  0.9438687392055377  1.0000
  P   P143      1.0  0.13398867795014566  0.7344566047980243  0.9421416234887847  1.0000
  Al  Al144     1.0  0.20152380990139376  0.8159844163029562  0.4645941278065744  1.0000
  P   P144      1.0  0.13022092503981658  0.7284679914642097  0.46286701208982134  1.0000
  Al  Al145     1.0  0.1964200848376034  0.811084269149199  0.985319516407611  1.0000
  P   P145      1.0  0.1265511477154871  0.7224188439172349  0.9835924006908578  1.0000
  Al  Al146     1.0  0.19139679542336682  0.8061016980141272  0.5060449050086476  1.0000
  P   P146      1.0  0.12298031831066188  0.7163107649216038  0.5043177892918946  1.0000
  Al  Al147     1.0  0.18645527261480674  0.8010380230652667  0.02677029360968431  1.0000
  P   P147      1.0  0.11950938294189282  0.7101453728561254  0.02504317789293129  1.0000
  Al  Al148     1.0  0.18159682570340496  0.7958945859591745  0.5474956822107209  1.0000
  P   P148      1.0  0.11613926125809937  0.7039243012851129  0.5457685664939679  1.0000
  Al  Al149     1.0  0.1768227419690955  0.790672749485956  0.06822107081175754  1.0000
  P   P149      1.0  0.11287084619690098  0.6976491985255587  0.06649395509500453  1.0000
  Al  Al150     1.0  0.1721342863391905  0.7853738972081841  0.5889464594127941  1.0000
  P   P150      1.0  0.1097050037480265  0.6913217272104012  0.587219343696041  1.0000
  Al  Al151     1.0  0.16753270105322962  0.7799994330943153  0.10967184801382117  1.0000
  P   P151      1.0  0.1066425727238646  0.6849435638479994  0.10794473229706815  1.0000
  Al  Al152     1.0  0.16301920533383918  0.7745507811466977  0.6303972366148577  1.0000
  P   P152      1.0  0.10368436453721408  0.6785163983779288  0.6286701208981046  1.0000
  Al  Al153     1.0  0.15859499506369043  0.7690293850242713  0.1511226252158944  1.0000
  P   P153      1.0  0.10083116298629453  0.6720419337232206  0.14939550949914138  1.0000
  Al  Al154     1.0  0.15426124246864248  0.7634367076600609  0.6718480138169309  1.0000
  P   P154      1.0  0.09808372404707343  0.6655218853391602  0.6701208981001778  1.0000
  Al  Al155     1.0  0.1500190958071527  0.7577742308735615  0.1925734024179676  1.0000
  P   P155      1.0  0.09544277567296487  0.6589579807587657  0.1908462867012146  1.0000
  Al  Al156     1.0  0.1458696790660366  0.7520434549781193  0.7132987910190042  1.0000
  P   P156      1.0  0.09290901760195291  0.6523519591350637  0.7115716753022511  1.0000
  Al  Al157     1.0  0.1418140916626609  0.7462458983834136  0.23402417962004085  1.0000
  P   P157      1.0  0.0904831211711919  0.645705570780291  0.23229706390328783  1.0000
  Al  Al158     1.0  0.1378534081536442  0.7403830971931433  0.7547495682210773  1.0000
  P   P158      1.0  0.08816572913912966  0.6390205767021361  0.7530224525043243  1.0000
  Al  Al159     1.0  0.13398867795014566  0.7344566047980243  0.2754749568221141  1.0000
  P   P159      1.0  0.08595745551520535  0.632298748137146  0.27374784110536104  1.0000
  Al  Al160     1.0  0.13022092503981658  0.7284679914642097  0.7962003454231507  1.0000
  P   P160      1.0  0.0838588853971623  0.6255418660814275  0.7944732297063976  1.0000
  Al  Al161     1.0  0.1265511477154871  0.7224188439172349  0.31692573402418733  1.0000
  P   P161      1.0  0.08187057481602285  0.6187517208187571  0.3151986183074343  1.0000
  Al  Al162     1.0  0.12298031831066188  0.7163107649216038  0.8376511226252238  1.0000
  P   P162      1.0  0.07999305058876383  0.6119301114462345  0.8359240069084708  1.0000
  Al  Al163     1.0  0.11950938294189282  0.7101453728561254  0.3583765112262606  1.0000
  P   P163      1.0  0.07822681017873245  0.6050788453975974  0.35664939550950747  1.0000
  Al  Al164     1.0  0.11613926125809937  0.7039243012851129  0.8791018998272971  1.0000
  P   P164      1.0  0.07657232156384008  0.5981997379643305  0.8773747841105441  1.0000
  Al  Al165     1.0  0.11287084619690098  0.6976491985255587  0.3998272884283338  1.0000
  P   P165      1.0  0.07503002311256851  0.5912946118146908  0.3981001727115807  1.0000
  Al  Al166     1.0  0.1097050037480265  0.6913217272104012  0.9205526770293703  1.0000
  P   P166      1.0  0.07360032346782007  0.5843652965107778  0.9188255613126173  1.0000
  Al  Al167     1.0  0.1066425727238646  0.6849435638479994  0.44127806563040706  1.0000
  P   P167      1.0  0.07228360143864601  0.5774136280237796  0.439550949913654  1.0000
  Al  Al168     1.0  0.10368436453721408  0.6785163983779288  0.9620034542314435  1.0000
  P   P168      1.0  0.07108020589987767  0.5704414482475184  0.9602763385146904  1.0000
  Al  Al169     1.0  0.10083116298629453  0.6720419337232206  0.4827288428324706  1.0000
  P   P169      1.0  0.06999045569968976  0.5634506045104274  0.48100172711571754  1.0000
  Al  Al170     1.0  0.09808372404707343  0.6655218853391602  0.0034542314335073055  1.0000
  P   P170      1.0  0.06901463957511922  0.5564429490860886  0.001727115716754285  1.0000
  Al  Al171     1.0  0.09544277567296487  0.6589579807587657  0.5241796200345439  1.0000
  P   P171      1.0  0.06815301607556261  0.5494203387024602  0.5224525043177908  1.0000
  Al  Al172     1.0  0.09290901760195291  0.6523519591350637  0.044905008635580536  1.0000
  P   P172      1.0  0.06740581349427117  0.5423846340499221  0.043177892918827517  1.0000
  Al  Al173     1.0  0.0904831211711919  0.645705570780291  0.5656303972366171  1.0000
  P   P173      1.0  0.06677322980786303  0.5353376992882739  0.563903281519864  1.0000
  Al  Al174     1.0  0.08816572913912966  0.6390205767021361  0.08635578583765376  1.0000
  P   P174      1.0  0.06625543262386824  0.5282814015528123  0.08462867012090074  1.0000
  Al  Al175     1.0  0.08595745551520535  0.632298748137146  0.6070811744386904  1.0000
  P   P175      1.0  0.06585255913631949  0.5212176104596198  0.6053540587219373  1.0000
  Al  Al176     1.0  0.0838588853971623  0.6255418660814275  0.127806563039727  1.0000
  P   P176      1.0  0.06556471608940191  0.5141481976101975  0.126079447322974  1.0000
  Al  Al177     1.0  0.08187057481602285  0.6187517208187572  0.6485319516407636  1.0000
  P   P177      1.0  0.0653919797491704  0.5070750360955708  0.6468048359240105  1.0000
  Al  Al178     1.0  0.07999305058876383  0.6119301114462345  0.1692573402418002  1.0000
  P   P178      1.0  0.06533439588334211  0.49999999999999983  0.1675302245250472  1.0000
  Al  Al179     1.0  0.07822681017873245  0.6050788453975974  0.6899827288428367  1.0000
  P   P179      1.0  0.0653919797491704  0.4929249639044289  0.6882556131260836  1.0000
  Al  Al180     1.0  0.07657232156384018  0.5981997379643306  0.21070811744387347  1.0000
  P   P180      1.0  0.06556471608940191  0.48585180238980225  0.20898100172712045  1.0000
  Al  Al181     1.0  0.07503002311256851  0.5912946118146908  0.7314335060449101  1.0000
  P   P181      1.0  0.06585255913631949  0.47878238954038  0.729706390328157  1.0000
  Al  Al182     1.0  0.07360032346782007  0.5843652965107778  0.2521588946459467  1.0000
  P   P182      1.0  0.06625543262386824  0.4717185984471874  0.25043177892919366  1.0000
  Al  Al183     1.0  0.07228360143864601  0.5774136280237798  0.7728842832469832  1.0000
  P   P183      1.0  0.06677322980786303  0.4646623007117258  0.7711571675302301  1.0000
  Al  Al184     1.0  0.07108020589987767  0.5704414482475184  0.2936096718480199  1.0000
  P   P184      1.0  0.06740581349427117  0.4576153659500777  0.2918825561312669  1.0000
  Al  Al185     1.0  0.06999045569968976  0.5634506045104274  0.8143350604490566  1.0000
  P   P185      1.0  0.0681530160755627  0.4505796612975395  0.8126079447323035  1.0000
  Al  Al186     1.0  0.06901463957511932  0.5564429490860888  0.33506044905009313  1.0000
  P   P186      1.0  0.06901463957511932  0.4435570509139112  0.33333333333334014  1.0000
  Al  Al187     1.0  0.06815301607556261  0.5494203387024602  0.8557858376511297  1.0000
  P   P187      1.0  0.06999045569968976  0.43654939548957244  0.8540587219343767  1.0000
  Al  Al188     1.0  0.06740581349427117  0.5423846340499221  0.3765112262521664  1.0000
  P   P188      1.0  0.07108020589987767  0.42955855175248137  0.3747841105354133  1.0000
  Al  Al189     1.0  0.06677322980786303  0.5353376992882741  0.8972366148532028  1.0000
  P   P189      1.0  0.07228360143864601  0.4225863719762202  0.8955094991364498  1.0000
  Al  Al190     1.0  0.06625543262386824  0.5282814015528123  0.4179620034542396  1.0000
  P   P190      1.0  0.07360032346782007  0.41563470348922193  0.4162348877374865  1.0000
  Al  Al191     1.0  0.06585255913631949  0.5212176104596198  0.9386873920552762  1.0000
  P   P191      1.0  0.07503002311256851  0.40870538818530905  0.9369602763385232  1.0000
  Al  Al192     1.0  0.06556471608940191  0.5141481976101977  0.45941278065631286  1.0000
  P   P192      1.0  0.07657232156384018  0.4018002620356693  0.4576856649395598  1.0000
  Al  Al193     1.0  0.0653919797491704  0.5070750360955708  0.9801381692573493  1.0000
  P   P193      1.0  0.07822681017873255  0.39492115460240246  0.9784110535405963  1.0000
  Al  Al194     1.0  0.06533439588334211  0.49999999999999983  0.5008635578583861  1.0000
  P   P194      1.0  0.07999305058876392  0.3880698885537653  0.49913644214163305  1.0000
  Al  Al195     1.0  0.0653919797491704  0.4929249639044291  0.021588946459422755  1.0000
  P   P195      1.0  0.08187057481602295  0.38124827918124277  0.019861830742669735  1.0000
  Al  Al196     1.0  0.06556471608940191  0.48585180238980225  0.5423143350604593  1.0000
  P   P196      1.0  0.08385888539716238  0.3744581339185724  0.5405872193437062  1.0000
  Al  Al197     1.0  0.06585255913631949  0.47878238954038  0.06303972366149599  1.0000
  P   P197      1.0  0.08595745551520545  0.36770125186285374  0.06131260794474297  1.0000
  Al  Al198     1.0  0.06625543262386824  0.47171859844718766  0.5837651122625326  1.0000
  P   P198      1.0  0.08816572913912975  0.3609794232978639  0.5820379965457795  1.0000
  Al  Al199     1.0  0.06677322980786303  0.4646623007117258  0.10449050086356922  1.0000
  P   P199      1.0  0.09048312117119198  0.3542944292197087  0.1027633851468162  1.0000
  Al  Al200     1.0  0.06740581349427117  0.4576153659500777  0.6252158894646057  1.0000
  P   P200      1.0  0.09290901760195301  0.3476480408649361  0.6234887737478527  1.0000
  Al  Al201     1.0  0.06815301607556261  0.4505796612975397  0.14594127806564244  1.0000
  P   P201      1.0  0.09544277567296487  0.3410420192412344  0.14421416234888942  1.0000
  Al  Al202     1.0  0.06901463957511932  0.4435570509139112  0.666666666666679  1.0000
  P   P202      1.0  0.09808372404707351  0.33447811466083954  0.664939550949926  1.0000
  Al  Al203     1.0  0.06999045569968976  0.43654939548957244  0.18739205526771566  1.0000
  P   P203      1.0  0.10083116298629463  0.32795806627677926  0.18566493955096264  1.0000
  Al  Al204     1.0  0.07108020589987767  0.42955855175248153  0.7081174438687522  1.0000
  P   P204      1.0  0.10368436453721414  0.32148360162207124  0.7063903281519992  1.0000
  Al  Al205     1.0  0.07228360143864601  0.4225863719762202  0.2288428324697889  1.0000
  P   P205      1.0  0.10664257272386468  0.3150564361520005  0.22711571675303588  1.0000
  Al  Al206     1.0  0.07360032346782007  0.41563470348922193  0.7495682210708254  1.0000
  P   P206      1.0  0.10970500374802664  0.3086782727895986  0.7478411053540723  1.0000
  Al  Al207     1.0  0.07503002311256851  0.4087053881853092  0.27029360967186217  1.0000
  P   P207      1.0  0.11287084619690102  0.3023508014744414  0.2685664939551091  1.0000
  Al  Al208     1.0  0.07657232156384018  0.4018002620356693  0.7910189982728987  1.0000
  P   P208      1.0  0.11613926125809951  0.296075698714887  0.7892918825561457  1.0000
  Al  Al209     1.0  0.07822681017873255  0.39492115460240246  0.31174438687393535  1.0000
  P   P209      1.0  0.11950938294189291  0.2898546271438744  0.31001727115718236  1.0000
  Al  Al210     1.0  0.07999305058876383  0.3880698885537655  0.8324697754749719  1.0000
  P   P210      1.0  0.12298031831066192  0.28368923507839616  0.8307426597582188  1.0000
  Al  Al211     1.0  0.08187057481602295  0.38124827918124277  0.3531951640760086  1.0000
  P   P211      1.0  0.12655114771548723  0.277581156082765  0.35146804835925555  1.0000
  Al  Al212     1.0  0.08385888539716238  0.3744581339185724  0.8739205526770452  1.0000
  P   P212      1.0  0.13022092503981672  0.27153200853579007  0.8721934369602922  1.0000
  Al  Al213     1.0  0.08595745551520535  0.3677012518628539  0.39464594127808184  1.0000
  P   P213      1.0  0.1339886779501457  0.2655433952019756  0.3929188255613288  1.0000
  Al  Al214     1.0  0.08816572913912975  0.3609794232978639  0.9153713298791184  1.0000
  P   P214      1.0  0.13785340815364422  0.2596169028068568  0.9136442141623653  1.0000
  Al  Al215     1.0  0.09048312117119198  0.3542944292197087  0.43609671848013587  1.0000
  P   P215      1.0  0.14181409166266104  0.2537541016165862  0.4343696027633828  1.0000
  Al  Al216     1.0  0.09290901760195301  0.3476480408649363  0.9568221070811724  1.0000
  P   P216      1.0  0.14586967906603662  0.24795654502188064  0.9550949913644194  1.0000
  Al  Al217     1.0  0.09544277567296487  0.3410420192412344  0.4775474956822091  1.0000
  P   P217      1.0  0.15001909580715275  0.24222576912643842  0.47582037996545606  1.0000
  Al  Al218     1.0  0.09808372404707351  0.33447811466083954  0.9982728842832457  1.0000
  P   P218      1.0  0.1542612424686427  0.23656329233993897  0.9965457685664926  1.0000
  Al  Al219     1.0  0.10083116298629458  0.32795806627677937  0.5189982728842822  1.0000
  P   P219      1.0  0.15859499506369046  0.23097061497572874  0.5172711571675292  1.0000
  Al  Al220     1.0  0.10368436453721414  0.32148360162207124  0.03972366148531898  1.0000
  P   P220      1.0  0.1630192053338392  0.22544921885330227  0.037996545768565954  1.0000
  Al  Al221     1.0  0.10664257272386468  0.3150564361520005  0.5604490500863555  1.0000
  P   P221      1.0  0.16753270105322982  0.22000056690568448  0.5587219343696025  1.0000
  Al  Al222     1.0  0.10970500374802655  0.30867827278959875  0.08117443868739221  1.0000
  P   P222      1.0  0.17213428633919056  0.21462610279181585  0.0794473229706392  1.0000
  Al  Al223     1.0  0.11287084619690102  0.3023508014744414  0.6018998272884287  1.0000
  P   P223      1.0  0.1768227419690956  0.20932725051404397  0.6001727115716757  1.0000
  Al  Al224     1.0  0.11613926125809951  0.296075698714887  0.12262521588946544  1.0000
  P   P224      1.0  0.18159682570340518  0.20410541404082538  0.12089810017271242  1.0000
  Al  Al225     1.0  0.11950938294189282  0.28985462714387455  0.643350604490502  1.0000
  P   P225      1.0  0.18645527261480682  0.19896197693473328  0.641623488773749  1.0000
  Al  Al226     1.0  0.12298031831066192  0.28368923507839616  0.16407599309153867  1.0000
  P   P226      1.0  0.19139679542336685  0.19389830198587288  0.16234887737478565  1.0000
  Al  Al227     1.0  0.12655114771548723  0.277581156082765  0.6848013816925752  1.0000
  P   P227      1.0  0.19642008483760362  0.1889157308508009  0.6830742659758221  1.0000
  Al  Al228     1.0  0.13022092503981672  0.27153200853579007  0.20552677029361188  1.0000
  P   P228      1.0  0.20152380990139396  0.18401558369704382  0.20379965457685886  1.0000
  Al  Al229     1.0  0.1339886779501457  0.2655433952019756  0.7262521588946484  1.0000
  P   P229      1.0  0.20670661834661944  0.1791991588533104  0.7245250431778955  1.0000
  Al  Al230     1.0  0.13785340815364422  0.2596169028068568  0.24697754749568512  1.0000
  P   P230      1.0  0.21196713695145966  0.17446773246548974  0.2452504317789321  1.0000
  Al  Al231     1.0  0.14181409166266104  0.2537541016165862  0.7677029360967217  1.0000
  P   P231      1.0  0.21730397190423656  0.16982255815852826  0.7659758203799686  1.0000
  Al  Al232     1.0  0.14586967906603662  0.24795654502188064  0.28842832469775836  1.0000
  P   P232      1.0  0.22271570917271452  0.16526486670427243  0.2867012089810054  1.0000
  Al  Al233     1.0  0.15001909580715275  0.24222576912643842  0.8091537132987949  1.0000
  P   P233      1.0  0.2282009148787598  0.1607958656953663  0.8074265975820419  1.0000
  Al  Al234     1.0  0.1542612424686427  0.23656329233993897  0.32987910189983155  1.0000
  P   P234      1.0  0.2337581356782546  0.15641673922529278  0.32815198618307856  1.0000
  Al  Al235     1.0  0.15859499506369046  0.23097061497572874  0.8506044905008682  1.0000
  P   P235      1.0  0.23938589914617203  0.15212864757463868  0.8488773747841151  1.0000
  Al  Al236     1.0  0.1630192053338392  0.22544921885330227  0.37132987910190485  1.0000
  P   P236      1.0  0.2450827141667055  0.14793272690367032  0.3696027633851518  1.0000
  Al  Al237     1.0  0.16753270105322982  0.22000056690568448  0.8920552677029413  1.0000
  P   P237      1.0  0.25084707132835027  0.14383008895129987  0.8903281519861882  1.0000
  Al  Al238     1.0  0.17213428633919056  0.21462610279181585  0.41278065630397803  1.0000
  P   P238      1.0  0.2566774433238323  0.1398218207405225  0.411053540587225  1.0000
  Al  Al239     1.0  0.1768227419690956  0.20932725051404397  0.9335060449050147  1.0000
  P   P239      1.0  0.2625722853547808  0.13590898429040096  0.9317789291882616  1.0000
  Al  Al240     1.0  0.18159682570340518  0.20410541404082538  0.4542314335060513  1.0000
  P   P240      1.0  0.2685300355410309  0.13209261633467761  0.4525043177892982  1.0000
  Al  Al241     1.0  0.18645527261480682  0.19896197693473328  0.9749568221070878  1.0000
  P   P241      1.0  0.274549115334457  0.12837372804708336  0.9732297063903348  1.0000
  Al  Al242     1.0  0.19139679542336685  0.19389830198587288  0.4956822107081245  1.0000
  P   P242      1.0  0.2806279299372192  0.12475330477342039  0.49395509499137147  1.0000
  Al  Al243     1.0  0.19642008483760362  0.1889157308508009  0.0164075993091612  1.0000
  P   P243      1.0  0.2867648687243168  0.12123230577048774  0.014680483592408177  1.0000
  Al  Al244     1.0  0.20152380990139382  0.1840155836970439  0.5371329879101978  1.0000
  P   P244      1.0  0.29295830567033415  0.11781166395191965  0.5354058721934447  1.0000
  Al  Al245     1.0  0.20670661834661944  0.1791991588533104  0.057858376511234426  1.0000
  P   P245      1.0  0.2992065997802693  0.11449228564100276  0.056131260794481413  1.0000
  Al  Al246     1.0  0.21196713695145966  0.17446773246548974  0.578583765112271  1.0000
  P   P246      1.0  0.3055080955243248  0.11127505033054033  0.576856649395518  1.0000
  Al  Al247     1.0  0.21730397190423656  0.16982255815852826  0.09930915371330766  1.0000
  P   P247      1.0  0.31186112327655363  0.10816081044982369  0.09758203799655464  1.0000
  Al  Al248     1.0  0.22271570917271452  0.16526486670427243  0.6200345423143443  1.0000
  P   P248      1.0  0.31826399975723785  0.10515039113877558  0.6183074265975912  1.0000
  Al  Al249     1.0  0.2282009148787598  0.1607958656953663  0.1407599309153809  1.0000
  P   P249      1.0  0.32471502847888667  0.10224459002932265  0.13903281519862787  1.0000
  Al  Al250     1.0  0.2337581356782546  0.15641673922529278  0.6614853195164174  1.0000
  P   P250      1.0  0.3312125001957308  0.09944417703405817  0.6597582037996643  1.0000
  Al  Al251     1.0  0.23938589914617203  0.15212864757463868  0.18221070811745413  1.0000
  P   P251      1.0  0.3377546933566007  0.0967498941422476  0.1804835924007011  1.0000
  Al  Al252     1.0  0.2450827141667055  0.14793272690367032  0.7029360967184907  1.0000
  P   P252      1.0  0.3443398745610633  0.09416245522323391  0.7012089810017376  1.0000
  Al  Al253     1.0  0.25084707132835027  0.14383008895129987  0.22366148531952734  1.0000
  P   P253      1.0  0.350966299018699  0.09168254583729177  0.22193436960277432  1.0000
  Al  Al254     1.0  0.2566774433238323  0.1398218207405225  0.744386873920564  1.0000
  P   P254      1.0  0.3576322110113954  0.08931082305398493  0.7426597582038109  1.0000
  Al  Al255     1.0  0.2625722853547808  0.13590898429040096  0.2651122625216006  1.0000
  P   P255      1.0  0.36433584435853905  0.08704791527806935  0.26338514680484754  1.0000
  Al  Al256     1.0  0.2685300355410309  0.13209261633467761  0.7858376511226371  1.0000
  P   P256      1.0  0.3710754228849753  0.08489442208299441  0.784110535405884  1.0000
  Al  Al257     1.0  0.274549115334457  0.12837372804708336  0.3065630397236738  1.0000
  P   P257      1.0  0.37784916089162013  0.08285091405204081  0.3048359240069208  1.0000
  Al  Al258     1.0  0.2806279299372192  0.12475330477342039  0.8272884283247103  1.0000
  P   P258      1.0  0.3846552636285928  0.08091793262714075  0.8255613126079573  1.0000
  Al  Al259     1.0  0.2867648687243168  0.12123230577048774  0.348013816925747  1.0000
  P   P259      1.0  0.39149192777074826  0.07909598996541903  0.34628670120899396  1.0000
  Al  Al260     1.0  0.29295830567033454  0.11781166395191947  0.8687392055267836  1.0000
  P   P260      1.0  0.39835734189548044  0.07738556880349323  0.8670120898100305  1.0000
  Al  Al261     1.0  0.2992065997802693  0.11449228564100276  0.38946459412782025  1.0000
  P   P261      1.0  0.40524968696267144  0.07578712232956973  0.3877374784110672  1.0000
  Al  Al262     1.0  0.3055080955243248  0.11127505033054033  0.9101899827288568  1.0000
  P   P262      1.0  0.41216713679666034  0.07430107406336743  0.9084628670121038  1.0000
  Al  Al263     1.0  0.31186112327655363  0.10816081044982369  0.4309153713298935  1.0000
  P   P263      1.0  0.4191078585700993  0.07292781774390403  0.42918825561314045  1.0000
  Al  Al264     1.0  0.31826399975723824  0.10515039113877545  0.9516407599309301  1.0000
  P   P264      1.0  0.4260700132895755  0.07166771722517158  0.949913644214177  1.0000
  Al  Al265     1.0  0.324715028478887  0.10224459002932247  0.47236614853196673  1.0000
  P   P265      1.0  0.4330517562828655  0.070521106379731  0.4706390328152137  1.0000
  Al  Al266     1.0  0.3312125001957311  0.099444177034058  0.9930915371330032  1.0000
  P   P266      1.0  0.4400512376876936  0.06948828901025035  0.9913644214162503  1.0000
  Al  Al267     1.0  0.3377546933566007  0.0967498941422476  0.51381692573404  1.0000
  P   P267      1.0  0.4470666029418661  0.0685695387690096  0.5120898100172869  1.0000
  Al  Al268     1.0  0.3443398745610633  0.09416245522323391  0.03454231433507665  1.0000
  P   P268      1.0  0.45409599327465183  0.06776509908539508  0.032815198618323625  1.0000
  Al  Al269     1.0  0.350966299018699  0.09168254583729177  0.5552677029361132  1.0000
  P   P269      1.0  0.4611375461992747  0.0670751831014008  0.5535405872193602  1.0000
  Al  Al270     1.0  0.35763221101139575  0.08931082305398484  0.07599309153714988  1.0000
  P   P270      1.0  0.46818939600639403  0.06649997361515521  0.07426597582039686  1.0000
  Al  Al271     1.0  0.3643358443585394  0.08704791527806927  0.5967184801381864  1.0000
  P   P271      1.0  0.47524967425843717  0.06603962303248734  0.5949913644214334  1.0000
  Al  Al272     1.0  0.37107542288497575  0.08489442208299432  0.11744386873922312  1.0000
  P   P272      1.0  0.4823165102846552  0.06569425332654592  0.1157167530224701  1.0000
  Al  Al273     1.0  0.37784916089162013  0.08285091405204081  0.6381692573402596  1.0000
  P   P273      1.0  0.4893880316767703  0.06546395600548172  0.6364421416235067  1.0000
  Al  Al274     1.0  0.3846552636285928  0.08091793262714075  0.15889464594129635  1.0000
  P   P274      1.0  0.49646236478508465  0.0653487920882017  0.15716753022454333  1.0000
  Al  Al275     1.0  0.39149192777074826  0.07909598996541903  0.6796200345423328  1.0000
  P   P275      1.0  0.5035376352149152  0.0653487920882017  0.6778929188255798  1.0000
  Al  Al276     1.0  0.39835734189548044  0.07738556880349323  0.2003454231433696  1.0000
  P   P276      1.0  0.5106119683232296  0.06546395600548172  0.19861830742661657  1.0000
  Al  Al277     1.0  0.40524968696267183  0.07578712232956973  0.7210708117444061  1.0000
  P   P277      1.0  0.517683489715345  0.06569425332654592  0.7193436960276531  1.0000
  Al  Al278     1.0  0.41216713679666067  0.07430107406336735  0.24179620034544277  1.0000
  P   P278      1.0  0.5247503257415631  0.06603962303248734  0.24006908462868978  1.0000
  Al  Al279     1.0  0.4191078585700993  0.07292781774390403  0.7625215889464794  1.0000
  P   P279      1.0  0.5318106039936058  0.06649997361515521  0.7607944732297263  1.0000
  Al  Al280     1.0  0.4260700132895755  0.07166771722517158  0.28324697754751604  1.0000
  P   P280      1.0  0.5388624538007252  0.0670751831014008  0.281519861830763  1.0000
  Al  Al281     1.0  0.4330517562828655  0.070521106379731  0.8039723661485526  1.0000
  P   P281      1.0  0.545904006725348  0.06776509908539508  0.8022452504317996  1.0000
  Al  Al282     1.0  0.4400512376876936  0.06948828901025035  0.3246977547495893  1.0000
  P   P282      1.0  0.5529333970581337  0.0685695387690096  0.32297063903283624  1.0000
  Al  Al283     1.0  0.44706660294186645  0.0685695387690096  0.8454231433506258  1.0000
  P   P283      1.0  0.5599487623123066  0.06948828901025035  0.8436960276338727  1.0000
  Al  Al284     1.0  0.4540959932746522  0.06776509908539499  0.3661485319516625  1.0000
  P   P284      1.0  0.5669482437171348  0.07052110637973108  0.3644214162349095  1.0000
  Al  Al285     1.0  0.4611375461992747  0.0670751831014008  0.886873920552699  1.0000
  P   P285      1.0  0.5739299867104244  0.0716677172251715  0.8851468048359459  1.0000
  Al  Al286     1.0  0.46818939600639403  0.06649997361515521  0.40759930915373577  1.0000
  P   P286      1.0  0.5808921414299006  0.07292781774390393  0.4058721934369827  1.0000
  Al  Al287     1.0  0.47524967425843717  0.06603962303248734  0.9283246977547723  1.0000
  P   P287      1.0  0.5878328632033396  0.07430107406336743  0.9265975820380192  1.0000
  Al  Al288     1.0  0.4823165102846552  0.06569425332654592  0.44905008635580895  1.0000
  P   P288      1.0  0.5947503130373285  0.07578712232956973  0.44732297063905585  1.0000
  Al  Al289     1.0  0.4893880316767707  0.06546395600548172  0.9697754749568455  1.0000
  P   P289      1.0  0.6016426581045198  0.07738556880349333  0.9680483592400924  1.0000
  Al  Al290     1.0  0.496462364785085  0.0653487920882017  0.4905008635578822  1.0000
  P   P290      1.0  0.608508072229252  0.07909598996541911  0.4887737478411291  1.0000
  Al  Al291     1.0  0.5035376352149152  0.0653487920882017  0.011226252158918867  1.0000
  P   P291      1.0  0.6153447363714071  0.08091793262714075  0.009499136442165847  1.0000
  Al  Al292     1.0  0.5106119683232296  0.06546395600548172  0.5319516407599554  1.0000
  P   P292      1.0  0.6221508391083798  0.08285091405204081  0.5302245250432024  1.0000
  Al  Al293     1.0  0.517683489715345  0.06569425332654592  0.0526770293609921  1.0000
  P   P293      1.0  0.6289245771150246  0.08489442208299432  0.05094991364423908  1.0000
  Al  Al294     1.0  0.5247503257415631  0.06603962303248734  0.5734024179620286  1.0000
  P   P294      1.0  0.6356641556414608  0.08704791527806927  0.5716753022452756  1.0000
  Al  Al295     1.0  0.5318106039936062  0.06649997361515521  0.09412780656306532  1.0000
  P   P295      1.0  0.6423677889886045  0.08931082305398484  0.0924006908463123  1.0000
  Al  Al296     1.0  0.5388624538007255  0.0670751831014008  0.6148531951641019  1.0000
  P   P296      1.0  0.6490337009813012  0.09168254583729185  0.6131260794473489  1.0000
  Al  Al297     1.0  0.545904006725348  0.06776509908539508  0.13557858376513857  1.0000
  P   P297      1.0  0.6556601254389366  0.09416245522323381  0.13385146804838555  1.0000
  Al  Al298     1.0  0.5529333970581337  0.0685695387690096  0.6563039723661751  1.0000
  P   P298      1.0  0.6622453066433992  0.0967498941422476  0.654576856649422  1.0000
  Al  Al299     1.0  0.5599487623123066  0.06948828901025035  0.17702936096721178  1.0000
  P   P299      1.0  0.6687874998042691  0.09944417703405808  0.17530224525045876  1.0000
  Al  Al300     1.0  0.5669482437171348  0.07052110637973108  0.6977547495682291  1.0000
  P   P300      1.0  0.6752849715211133  0.10224459002932257  0.696027633851476  1.0000
  Al  Al301     1.0  0.5739299867104247  0.07166771722517158  0.21848013816926581  1.0000
  P   P301      1.0  0.681736000242762  0.10515039113877554  0.2167530224525128  1.0000
  Al  Al302     1.0  0.580892141429901  0.07292781774390403  0.7392055267703024  1.0000
  P   P302      1.0  0.6881388767234466  0.10816081044982379  0.7374784110535494  1.0000
  Al  Al303     1.0  0.5878328632033396  0.07430107406336743  0.259930915371339  1.0000
  P   P303      1.0  0.6944919044756751  0.11127505033054019  0.258203799654586  1.0000
  Al  Al304     1.0  0.5947503130373285  0.07578712232956973  0.7806563039723756  1.0000
  P   P304      1.0  0.7007934002197307  0.11449228564100267  0.7789291882556225  1.0000
  Al  Al305     1.0  0.6016426581045198  0.07738556880349333  0.30138169257341224  1.0000
  P   P305      1.0  0.7070416943296657  0.11781166395191955  0.29965457685665925  1.0000
  Al  Al306     1.0  0.608508072229252  0.07909598996541911  0.8221070811744488  1.0000
  P   P306      1.0  0.7132351312756835  0.12123230577048782  0.8203799654576956  1.0000
  Al  Al307     1.0  0.6153447363714074  0.08091793262714085  0.3428324697754855  1.0000
  P   P307      1.0  0.7193720700627811  0.12475330477342049  0.3411053540587324  1.0000
  Al  Al308     1.0  0.6221508391083801  0.08285091405204091  0.8635578583765221  1.0000
  P   P308      1.0  0.7254508846655433  0.1283737280470835  0.861830742659769  1.0000
  Al  Al309     1.0  0.6289245771150246  0.08489442208299432  0.3842832469775587  1.0000
  P   P309      1.0  0.7314699644589691  0.13209261633467748  0.3825561312608057  1.0000
  Al  Al310     1.0  0.6356641556414608  0.08704791527806927  0.9050086355785952  1.0000
  P   P310      1.0  0.7374277146452193  0.13590898429040088  0.9032815198618421  1.0000
  Al  Al311     1.0  0.6423677889886045  0.08931082305398484  0.42573402417963196  1.0000
  P   P311      1.0  0.7433225566761675  0.1398218207405224  0.4240069084628789  1.0000
  Al  Al312     1.0  0.6490337009813012  0.09168254583729185  0.9464594127806686  1.0000
  P   P312      1.0  0.74915292867165  0.1438300889513  0.9447322970639155  1.0000
  Al  Al313     1.0  0.6556601254389369  0.09416245522323399  0.4671848013817052  1.0000
  P   P313      1.0  0.7549172858332948  0.14793272690367046  0.46545768566495216  1.0000
  Al  Al314     1.0  0.6622453066433995  0.09674989414224769  0.9879101899827417  1.0000
  P   P314      1.0  0.7606141008538283  0.15212864757463884  0.9861830742659886  1.0000
  Al  Al315     1.0  0.6687874998042691  0.09944417703405808  0.5086355785837784  1.0000
  P   P315      1.0  0.7662418643217453  0.1564167392252927  0.5069084628670254  1.0000
  Al  Al316     1.0  0.6752849715211133  0.10224459002932257  0.029360967184815092  1.0000
  P   P316      1.0  0.7717990851212401  0.16079586569536622  0.02763385146806207  1.0000
  Al  Al317     1.0  0.681736000242762  0.10515039113877554  0.5500863557858516  1.0000
  P   P317      1.0  0.7772842908272855  0.16526486670427235  0.5483592400690985  1.0000
  Al  Al318     1.0  0.6881388767234466  0.10816081044982379  0.07081174438688832  1.0000
  P   P318      1.0  0.7826960280957638  0.1698225581585284  0.0690846286701353  1.0000
  Al  Al319     1.0  0.6944919044756754  0.11127505033054041  0.5915371329879249  1.0000
  P   P319      1.0  0.7880328630485405  0.17446773246548988  0.5898100172711718  1.0000
  Al  Al320     1.0  0.7007934002197309  0.11449228564100285  0.11226252158896155  1.0000
  P   P320      1.0  0.7932933816533808  0.17919915885331053  0.11053540587220853  1.0000
  Al  Al321     1.0  0.707041694329666  0.11781166395191978  0.6329879101899981  1.0000
  P   P321      1.0  0.7984761900986064  0.18401558369704407  0.631260794473245  1.0000
  Al  Al322     1.0  0.7132351312756835  0.12123230577048782  0.1537132987910348  1.0000
  P   P322      1.0  0.8035799151623965  0.1889157308508009  0.15198618307428177  1.0000
  Al  Al323     1.0  0.7193720700627811  0.12475330477342049  0.6744386873920714  1.0000
  P   P323      1.0  0.8086032045766333  0.19389830198587293  0.6727115716753183  1.0000
  Al  Al324     1.0  0.7254508846655433  0.1283737280470835  0.195164075993108  1.0000
  P   P324      1.0  0.8135447273851932  0.1989619769347334  0.19343696027635499  1.0000
  Al  Al325     1.0  0.7314699644589693  0.13209261633467775  0.7158894645941446  1.0000
  P   P325      1.0  0.8184031742965949  0.20410541404082552  0.7141623488773915  1.0000
  Al  Al326     1.0  0.7374277146452194  0.13590898429040107  0.23661485319518125  1.0000
  P   P326      1.0  0.8231772580309047  0.20932725051404413  0.23488773747842823  1.0000
  Al  Al327     1.0  0.7433225566761679  0.1398218207405226  0.7573402417962177  1.0000
  P   P327      1.0  0.8278657136608096  0.214626102791816  0.7556131260794647  1.0000
  Al  Al328     1.0  0.74915292867165  0.1438300889513  0.27806563039725446  1.0000
  P   P328      1.0  0.8324672989467703  0.2200005669056845  0.27633851468050147  1.0000
  Al  Al329     1.0  0.7549172858332948  0.14793272690367046  0.7987910189982911  1.0000
  P   P329      1.0  0.8369807946661608  0.22544921885330227  0.797063903281538  1.0000
  Al  Al330     1.0  0.7606141008538283  0.15212864757463884  0.3195164075993277  1.0000
  P   P330      1.0  0.8414050049363095  0.23097061497572874  0.3177892918825747  1.0000
  Al  Al331     1.0  0.7662418643217457  0.15641673922529298  0.8402417962003642  1.0000
  P   P331      1.0  0.8457387575313575  0.23656329233993914  0.8385146804836112  1.0000
  Al  Al332     1.0  0.7717990851212404  0.1607958656953665  0.36096718480140094  1.0000
  P   P332      1.0  0.8499809041928474  0.2422257691264386  0.3592400690846479  1.0000
  Al  Al333     1.0  0.7772842908272857  0.16526486670427257  0.8816925734024376  1.0000
  P   P333      1.0  0.8541303209339635  0.2479565450218808  0.8799654576856845  1.0000
  Al  Al334     1.0  0.7826960280957638  0.1698225581585284  0.40241796200349345  1.0000
  P   P334      1.0  0.858185908337339  0.25375410161658624  0.40069084628674034  1.0000
  Al  Al335     1.0  0.7880328630485405  0.17446773246548988  0.9231433506045107  1.0000
  P   P335      1.0  0.8621465918463559  0.2596169028068568  0.9214162348877577  1.0000
  Al  Al336     1.0  0.7932933816533808  0.17919915885331053  0.44386873920554737  1.0000
  P   P336      1.0  0.8660113220498543  0.2655433952019757  0.4421416234887943  1.0000
  Al  Al337     1.0  0.7984761900986064  0.18401558369704407  0.9645941278065646  1.0000
  P   P337      1.0  0.8697790749601835  0.27153200853579024  0.9628670120898116  1.0000
  Al  Al338     1.0  0.8035799151623968  0.1889157308508012  0.4853195164076398  1.0000
  P   P338      1.0  0.873448852284513  0.2775811560827652  0.48359240069088677  1.0000
  Al  Al339     1.0  0.8086032045766335  0.1938983019858732  0.006044905008638084  1.0000
  P   P339      1.0  0.8770196816893382  0.2836892350783964  0.004317789291885064  1.0000
  Al  Al340     1.0  0.8135447273851932  0.1989619769347334  0.5267702936096939  1.0000
  P   P340      1.0  0.880490617058107  0.2898546271438744  0.5250431778929407  1.0000
  Al  Al341     1.0  0.8184031742965949  0.20410541404082552  0.047495682210730535  1.0000
  P   P341      1.0  0.8838607387419005  0.296075698714887  0.04576856649397752  1.0000
  Al  Al342     1.0  0.8231772580309047  0.20932725051404413  0.5682210708117863  1.0000
  P   P342      1.0  0.887129153803099  0.3023508014744414  0.5664939550950333  1.0000
  Al  Al343     1.0  0.8278657136608096  0.214626102791816  0.08894645941278455  1.0000
  P   P343      1.0  0.8902949962519735  0.30867827278959875  0.08721934369603153  1.0000
  Al  Al344     1.0  0.8324672989467706  0.2200005669056848  0.6096718480138019  1.0000
  P   P344      1.0  0.8933574272761355  0.31505643615200074  0.6079447322970488  1.0000
  Al  Al345     1.0  0.8369807946661612  0.22544921885330257  0.13039723661487698  1.0000
  P   P345      1.0  0.8963156354627859  0.3214836016220714  0.128670120898124  1.0000
  Al  Al346     1.0  0.8414050049363095  0.23097061497572874  0.6511226252158944  1.0000
  P   P346      1.0  0.8991688370137054  0.3279580662767793  0.6493955094991413  1.0000
  Al  Al347     1.0  0.8457387575313575  0.23656329233993914  0.171848013816931  1.0000
  P   P347      1.0  0.9019162759529267  0.33447811466083954  0.17012089810017797  1.0000
  Al  Al348     1.0  0.8499809041928474  0.2422257691264386  0.6925734024179483  1.0000
  P   P348      1.0  0.9045572243270352  0.34104201924123445  0.6908462867011952  1.0000
  Al  Al349     1.0  0.8541303209339635  0.2479565450218808  0.21329879101902346  1.0000
  P   P349      1.0  0.9070909823980472  0.3476480408649364  0.21157167530227045  1.0000
  Al  Al350     1.0  0.8581859083373392  0.2537541016165865  0.7340241796200409  1.0000
  P   P350      1.0  0.9095168788288082  0.35429442921970894  0.7322970639032877  1.0000
  Al  Al351     1.0  0.862146591846356  0.25961690280685706  0.25474956822107747  1.0000
  P   P351      1.0  0.9118342708608704  0.36097942329786414  0.2530224525043245  1.0000
  Al  Al352     1.0  0.8660113220498543  0.2655433952019757  0.7754749568220948  1.0000
  P   P352      1.0  0.9140425444847946  0.36770125186285374  0.7737478411053417  1.0000
  Al  Al353     1.0  0.8697790749601835  0.27153200853579024  0.2962003454231699  1.0000
  P   P353      1.0  0.9161411146028376  0.3744581339185724  0.2944732297064169  1.0000
  Al  Al354     1.0  0.873448852284513  0.2775811560827652  0.8169257340241872  1.0000
  P   P354      1.0  0.918129425183977  0.38124827918124277  0.8151986183074341  1.0000
  Al  Al355     1.0  0.8770196816893382  0.2836892350783964  0.33765112262522395  1.0000
  P   P355      1.0  0.9200069494112363  0.38806988855376556  0.3359240069084709  1.0000
  Al  Al356     1.0  0.8804906170581074  0.2898546271438747  0.8583765112262413  1.0000
  P   P356      1.0  0.9217731898212677  0.3949211546024027  0.8566493955094883  1.0000
  Al  Al357     1.0  0.8838607387419007  0.2960756987148873  0.37910189982731635  1.0000
  P   P357      1.0  0.9234276784361599  0.40180026203566954  0.3773747841105633  1.0000
  Al  Al358     1.0  0.887129153803099  0.3023508014744414  0.8998272884283337  1.0000
  P   P358      1.0  0.9249699768874315  0.40870538818530905  0.8981001727115806  1.0000
  Al  Al359     1.0  0.8902949962519735  0.30867827278959875  0.4205526770293704  1.0000
  P   P359      1.0  0.92639967653218  0.41563470348922193  0.41882556131261733  1.0000
  Al  Al360     1.0  0.8933574272761355  0.31505643615200074  0.9412780656303877  1.0000
  P   P360      1.0  0.9277163985613541  0.4225863719762202  0.9395509499136347  1.0000
  Al  Al361     1.0  0.8963156354627859  0.3214836016220714  0.46200345423146283  1.0000
  P   P361      1.0  0.9289197941001224  0.42955855175248153  0.4602763385147098  1.0000
  Al  Al362     1.0  0.8991688370137055  0.32795806627677965  0.9827288428324802  1.0000
  P   P362      1.0  0.9300095443003102  0.4365493954895726  0.9810017271157271  1.0000
  Al  Al363     1.0  0.9019162759529267  0.3344781146608399  0.5034542314335169  1.0000
  P   P363      1.0  0.9309853604248808  0.44355705091391134  0.5017271157167638  1.0000
  Al  Al364     1.0  0.9045572243270352  0.34104201924123445  0.024179620034553533  1.0000
  P   P364      1.0  0.9318469839244372  0.4505796612975395  0.02245250431780051  1.0000
  Al  Al365     1.0  0.9070909823980472  0.3476480408649364  0.5449050086356093  1.0000
  P   P365      1.0  0.9325941865057289  0.4576153659500777  0.5431778929188563  1.0000
  Al  Al366     1.0  0.9095168788288082  0.35429442921970894  0.06563039723660753  1.0000
  P   P366      1.0  0.9332267701921371  0.4646623007117259  0.06390328151985451  1.0000
  Al  Al367     1.0  0.9118342708608704  0.36097942329786414  0.5863557858376632  1.0000
  P   P367      1.0  0.9337445673761318  0.47171859844718766  0.5846286701209102  1.0000
  Al  Al368     1.0  0.9140425444847948  0.3677012518628542  0.1070811744387  1.0000
  P   P368      1.0  0.9341474408636806  0.47878238954038016  0.10535405872194697  1.0000
  Al  Al369     1.0  0.9161411146028379  0.3744581339185728  0.6278065630397558  1.0000
  P   P369      1.0  0.934435283910598  0.4858518023898024  0.6260794473230027  1.0000
  Al  Al370     1.0  0.918129425183977  0.38124827918124277  0.148531951640754  1.0000
  P   P370      1.0  0.9346080202508298  0.4929249639044289  0.14680483592400098  1.0000
  Al  Al371     1.0  0.9200069494112363  0.38806988855376556  0.6692573402418097  1.0000
  P   P371      1.0  0.9346656041166579  0.49999999999999994  0.6675302245250567  1.0000
  Al  Al372     1.0  0.9217731898212677  0.3949211546024027  0.18998272884284645  1.0000
  P   P372      1.0  0.9346080202508298  0.5070750360955708  0.18825561312609343  1.0000
  Al  Al373     1.0  0.9234276784361599  0.40180026203566954  0.7107081174439023  1.0000
  P   P373      1.0  0.934435283910598  0.5141481976101978  0.7089810017271492  1.0000
  Al  Al374     1.0  0.9249699768874315  0.4087053881853095  0.23143350604490046  1.0000
  P   P374      1.0  0.9341474408636806  0.5212176104596201  0.22970639032814744  1.0000
  Al  Al375     1.0  0.92639967653218  0.4156347034892224  0.7521588946459562  1.0000
  P   P375      1.0  0.9337445673761318  0.5282814015528126  0.7504317789292031  1.0000
  Al  Al376     1.0  0.9277163985613541  0.4225863719762202  0.27288428324699293  1.0000
  P   P376      1.0  0.9332267701921371  0.535337699288274  0.27115716753023994  1.0000
  Al  Al377     1.0  0.9289197941001224  0.42955855175248153  0.7936096718480488  1.0000
  P   P377      1.0  0.9325941865057289  0.5423846340499221  0.7918825561312957  1.0000
  Al  Al378     1.0  0.9300095443003102  0.4365493954895726  0.3143350604490469  1.0000
  P   P378      1.0  0.9318469839244374  0.5494203387024603  0.3126079447322939  1.0000
  Al  Al379     1.0  0.9309853604248808  0.44355705091391134  0.8350604490501027  1.0000
  P   P379      1.0  0.9309853604248808  0.5564429490860888  0.8333333333333496  1.0000
  Al  Al380     1.0  0.9318469839244374  0.4505796612975399  0.35578583765113936  1.0000
  P   P380      1.0  0.9300095443003102  0.5634506045104276  0.3540587219343863  1.0000
  Al  Al381     1.0  0.9325941865057289  0.457615365950078  0.8765112262521952  1.0000
  P   P381      1.0  0.9289197941001224  0.5704414482475187  0.8747841105354421  1.0000
  Al  Al382     1.0  0.9332267701921371  0.4646623007117259  0.3972366148531934  1.0000
  P   P382      1.0  0.9277163985613541  0.5774136280237797  0.39550949913644035  1.0000
  Al  Al383     1.0  0.9337445673761318  0.47171859844718766  0.9179620034542492  1.0000
  P   P383      1.0  0.92639967653218  0.5843652965107778  0.9162348877374961  1.0000
  Al  Al384     1.0  0.9341474408636806  0.47878238954038016  0.43868739205528584  1.0000
  P   P384      1.0  0.9249699768874315  0.5912946118146908  0.4369602763385328  1.0000
  Al  Al385     1.0  0.934435283910598  0.4858518023898024  0.9594127806563415  1.0000
  P   P385      1.0  0.9234276784361598  0.5981997379643307  0.9576856649395885  1.0000
  Al  Al386     1.0  0.9346080202508298  0.49292496390442936  0.4801381692573398  1.0000
  P   P386      1.0  0.9217731898212677  0.6050788453975975  0.4784110535405868  1.0000
