data_image0
_chemical_formula_structural       AlPAlPAlPAlPAlPAlPAlPAlPAlPAlPAlPAlPAlPAlPAlPAlPAlPAlPAlPAlPAlPAlPAlPAlPAlPAlPAlPAlPAlPAlPAlPAlPAlPAlPAlPAlPAlPAlPAlPAlPAlPAlPAlPAlPAlPAlPAlPAlPAlPAlPAlPAlPAlPAlPAlPAlPAlPAlPAlPAlPAlPAlPAlPAlPAlPAlPAlPAlPAlPAlPAlPAlPAlPAlPAlPAlPAlPAlPAlPAlPAlPAlPAlPAlPAlPAlPAlPAlPAlPAlPAlPAlPAlPAlPAlPAlPAlPAlPAlPAlPAlPAlPAlPAlPAlPAlPAlPAlPAlPAlPAlPAlPAlPAlPAlPAlPAlPAlPAlPAlPAlPAlPAlPAlPAlPAlPAlPAlPAlPAlPAlPAlPAlPAlPAlPAlPAlPAlPAlPAlPAlPAlPAlPAlPAlPAlPAlPAlPAlPAlPAlPAlPAlPAlPAlPAlPAlPAlPAlPAlPAlPAlPAlPAlPAlPAlPAlPAlPAlPAlPAlPAlPAlPAlPAlPAlPAlPAlPAlPAlPAlPAlPAlPAlPAlPAlPAlPAlPAlPAlPAlPAlPAlPAlPAlPAlPAlPAlPAlPAlPAlPAlPAlPAlPAlPAlPAlPAlPAlPAlPAlPAlPAlPAlPAlPAlPAlPAlPAlPAlPAlPAlPAlPAlPAlPAlPAlPAlPAlPAlPAlPAlPAlPAlPAlPAlPAlPAlPAlPAlPAlPAlPAlPAlPAlPAlPAlPAlPAlPAlPAlPAlPAlPAlPAlPAlPAlPAlPAlPAlPAlPAlPAlPAlPAlPAlPAlPAlPAlPAlPAlPAlPAlPAlPAlPAlPAlPAlPAlPAlPAlPAlPAlPAlPAlPAlPAlPAlPAlPAlPAlPAlPAlPAlPAlPAlPAlPAlPAlPAlPAlPAlPAlPAlPAlPAlPAlPAlPAlPAlPAlPAlPAlPAlPAlPAlPAlPAlPAlPAlPAlPAlPAlPAlPAlPAlPAlPAlPAlPAlPAlPAlPAlPAlPAlPAlPAlPAlPAlPAlPAlPAlPAlPAlPAlPAlPAlPAlPAlPAlPAlPAlPAlPAlPAlPAlPAlPAlPAlPAlPAlPAlPAlPAlPAlPAlPAlPAlPAlPAlPAlPAlPAlPAlPAlPAlPAlPAlPAlPAlPAlPAlPAlPAlPAlPAlPAlPAlPAlPAlPAlPAlPAlPAlPAlPAlPAlPAlPAlPAlPAlPAlPAlPAlPAlPAlPAlPAlPAlPAlPAlPAlPAlPAlPAlPAlPAlPAlPAlPAlPAlPAlPAlPAlPAlPAlPAlPAlPAlPAlPAlPAlPAlPAlPAlPAlPAlPAlPAlPAlPAlPAlPAlPAlPAlPAlPAlPAlPAlPAlPAlPAlPAlPAlPAlPAlPAlPAlPAlPAlPAlPAlPAlPAlPAlPAlPAlPAlPAlPAlPAlPAlPAlPAlPAlPAlPAlPAlPAlPAlPAlPAlPAlPAlPAlPAlPAlPAlPAlPAlPAlPAlPAlPAlPAlPAlPAlPAlPAlPAlPAlPAlPAlPAlPAlPAlPAlPAlPAlPAlPAlPAlPAlPAlPAlPAlPAlPAlPAlPAlPAlPAlPAlPAlPAlPAlPAlPAlPAlPAlPAlPAlPAlPAlPAlPAlPAlPAlPAlPAlPAlPAlPAlPAlPAlPAlPAlPAlPAlPAlPAlPAlPAlPAlPAlPAlPAlPAlPAlPAlPAlPAlPAlPAlPAlPAlPAlPAlPAlPAlPAlPAlPAlPAlPAlPAlPAlPAlPAlPAlPAlPAlPAlPAlPAlPAlPAlPAlPAlPAlPAlPAlPAlPAlPAlPAlPAlPAlPAlPAlPAlPAlP
_chemical_formula_sum              "Al602 P602"
_cell_length_a       20.0
_cell_length_b       20.0
_cell_length_c       118.14908421143176
_cell_angle_alpha    90.0
_cell_angle_beta     90.0
_cell_angle_gamma    90.0

_space_group_name_H-M_alt    "P 1"
_space_group_IT_number       1

loop_
  _space_group_symop_operation_xyz
  'x, y, z'

loop_
  _atom_site_type_symbol
  _atom_site_label
  _atom_site_symmetry_multiplicity
  _atom_site_fract_x
  _atom_site_fract_y
  _atom_site_fract_z
  _atom_site_occupancy
  Al  Al1       1.0  0.04282503411154148  0.5  0.0005537098560354274  1.0000
  P   P1        1.0  0.03104140534397337  0.6124901927658322  0.9994462901439646  1.0000
  Al  Al2       1.0  0.042795468103929535  0.5056654623846719  0.5171650055370987  1.0000
  P   P2        1.0  0.029838421529748915  0.6180265424769371  0.5160575858250278  1.0000
  Al  Al3       1.0  0.0427067733018327  0.511330307608773  0.03377630121816185  1.0000
  P   P3        1.0  0.02857772038187334  0.6235500351035896  0.03266888150609098  1.0000
  Al  Al4       1.0  0.042558959367115845  0.5169939185789617  0.550387596899225  1.0000
  P   P4        1.0  0.02725943923336338  0.6290600689505293  0.5492801771871542  1.0000
  Al  Al5       1.0  0.04235204240171919  0.522655678336349  0.06699889258028828  1.0000
  P   P5        1.0  0.025883721689645922  0.6345560437886129  0.0658914728682174  1.0000
  Al  Al6       1.0  0.04208604494590129  0.5283149701237051  0.5836101882613514  1.0000
  P   P6        1.0  0.02445071761291584  0.6400373609201984  0.5825027685492805  1.0000
  Al  Al7       1.0  0.041760995975787196  0.5339711774526461  0.10022148394241445  1.0000
  P   P7        1.0  0.02296058310580884  0.6455034232443645  0.09911406423034358  1.0000
  Al  Al8       1.0  0.041376930900208775  0.5396236841707899  0.6168327796234777  1.0000
  P   P8        1.0  0.021413480494398618  0.6509536353219544  0.6157253599114069  1.0000
  Al  Al9       1.0  0.04093389155685001  0.5452718745288758  0.13344407530454114  1.0000
  P   P9        1.0  0.01980957831051322  0.6563874034404396  0.13233665559247026  1.0000
  Al  Al10      1.0  0.040431926207686875  0.5509151332478411  0.6500553709856044  1.0000
  P   P10       1.0  0.018149051273375294  0.6618041356785951  0.6489479512735336  1.0000
  Al  Al11      1.0  0.03987108953373286  0.5565528455858455  0.1666666666666673  1.0000
  P   P11       1.0  0.016432080270571747  0.6672032419709799  0.16555924695459642  1.0000
  Al  Al12      1.0  0.03925144262907998  0.5621843974052371  0.6832779623477311  1.0000
  P   P12       1.0  0.01465885233834574  0.672584134172215  0.6821705426356602  1.0000
  Al  Al13      1.0  0.03857305299424452  0.567809175239453  0.19988925802879348  1.0000
  P   P13       1.0  0.012829560641224758  0.677946226121052  0.1987818383167226  1.0000
  Al  Al14      1.0  0.0378359945288147  0.5734265663598466  0.7165005537098573  1.0000
  P   P14       1.0  0.010944404450977219  0.6832889337042265  0.7153931339977865  1.0000
  Al  Al15      1.0  0.03704034752339913  0.5790359588424343  0.23311184939092064  1.0000
  P   P15       1.0  0.009003589124905398  0.6886116749200873  0.23200442967884974  1.0000
  Al  Al16      1.0  0.036186198650880685  0.5846367416345549  0.7497231450719843  1.0000
  P   P16       1.0  0.007007326083474652  0.6939138699419963  0.7486157253599135  1.0000
  Al  Al17      1.0  0.03527364095697627  0.5902283046214338  0.2663344407530468  1.0000
  P   P17       1.0  0.0049558327872831764  0.6991949411814912  0.26522702104097595  1.0000
  Al  Al18      1.0  0.034302773850098944  0.5958100386926453  0.7829457364341097  1.0000
  P   P18       1.0  0.002849332713372288  0.7044543133512042  0.7818383167220389  1.0000
  Al  Al19      1.0  0.03327370309053079  0.601381335808465  0.299557032115173  1.0000
  P   P19       1.0  0.0006880553308838966  0.7096914135275312  0.29844961240310214  1.0000
  Al  Al20      1.0  0.032186540778900596  0.6069415890661061  0.8161683277962367  1.0000
  P   P20       1.0  0.9984722360760614  0.7149056712130407  0.8150609080841659  1.0000
  Al  Al21      1.0  0.03104140534397337  0.612490192765832  0.33277962347729917  1.0000
  P   P21       1.0  0.9962021163266043  0.7200965183986225  0.3316722037652283  1.0000
  Al  Al22      1.0  0.029838421529748915  0.6180265424769371  0.8493909191583628  1.0000
  P   P22       1.0  0.9938779433753734  0.7252633896253619  0.848283499446292  1.0000
  Al  Al23      1.0  0.02857772038187334  0.6235500351035896  0.3660022148394273  1.0000
  P   P23       1.0  0.9914999704034525  0.7304057220461367  0.3648947951273564  1.0000
  Al  Al24      1.0  0.02725943923336338  0.6290600689505293  0.8826135105204911  1.0000
  P   P24       1.0  0.9890684564525675  0.7355229554869317  0.8815060908084202  1.0000
  Al  Al25      1.0  0.025883721689645922  0.6345560437886129  0.39922480620155154  1.0000
  P   P25       1.0  0.9865836663968697  0.7406145325078599  0.3981173864894807  1.0000
  Al  Al26      1.0  0.02445071761291584  0.6400373609201984  0.9158361018826152  1.0000
  P   P26       1.0  0.9840458709140805  0.7456798984638864  0.9147286821705444  1.0000
  Al  Al27      1.0  0.02296058310580884  0.6455034232443645  0.43244739756367967  1.0000
  P   P27       1.0  0.9814553464560059  0.7507185015652486  0.43133997785160877  1.0000
  Al  Al28      1.0  0.021413480494398618  0.6509536353219544  0.9490586932447415  1.0000
  P   P28       1.0  0.978812375218422  0.755729792937564  0.9479512735326706  1.0000
  Al  Al29      1.0  0.01980957831051322  0.6563874034404394  0.46566998892580586  1.0000
  P   P29       1.0  0.9761172451103335  0.7607132266816219  0.464562569213735  1.0000
  Al  Al30      1.0  0.018149051273375294  0.6618041356785951  0.9822812846068696  1.0000
  P   P30       1.0  0.973370249722612  0.7656682599328497  0.9811738648947987  1.0000
  Al  Al31      1.0  0.016432080270571747  0.6672032419709799  0.49889258028793204  1.0000
  P   P31       1.0  0.9705716882960118  0.7705943529204502  0.4977851605758612  1.0000
  Al  Al32      1.0  0.01465885233834574  0.672584134172215  0.015503875968994423  1.0000
  P   P32       1.0  0.9677218656885755  0.7754909690261993  0.014396456256923549  1.0000
  Al  Al33      1.0  0.012829560641224758  0.677946226121052  0.5321151716500582  1.0000
  P   P33       1.0  0.9648210923424213  0.7803575748429037  0.5310077519379873  1.0000
  Al  Al34      1.0  0.010944404450977219  0.6832889337042265  0.04872646733112253  1.0000
  P   P34       1.0  0.9618696842499284  0.7851936402325055  0.047619047619051655  1.0000
  Al  Al35      1.0  0.009003589124905398  0.6886116749200872  0.5653377630121844  1.0000
  P   P35       1.0  0.9588679629193119  0.7899986383838331  0.5642303433001136  1.0000
  Al  Al36      1.0  0.007007326083474652  0.6939138699419962  0.08194905869324871  1.0000
  P   P36       1.0  0.9558162553396023  0.7947720458699883  0.08084163898117785  1.0000
  Al  Al37      1.0  0.0049558327872831764  0.6991949411814911  0.5985603543743105  1.0000
  P   P37       1.0  0.9527148939450241  0.7995133427053656  0.5974529346622397  1.0000
  Al  Al38      1.0  0.002849332713372288  0.7044543133512042  0.11517165005537297  1.0000
  P   P38       1.0  0.9495642165787818  0.8042220124022954  0.1140642303433021  1.0000
  Al  Al39      1.0  0.0006880553308838966  0.7096914135275311  0.6317829457364387  1.0000
  P   P39       1.0  0.9463645664562581  0.8088975420273083  0.6306755260243678  1.0000
  Al  Al40      1.0  0.9984722360760614  0.7149056712130407  0.14839424141750107  1.0000
  P   P40       1.0  0.9431162921276273  0.8135394222570099  0.1472868217054302  1.0000
  Al  Al41      1.0  0.9962021163266043  0.7200965183986225  0.6650055370985629  1.0000
  P   P41       1.0  0.9398197474398832  0.8181471474335636  0.6638981173864921  1.0000
  Al  Al42      1.0  0.9938779433753734  0.7252633896253619  0.1816168327796292  1.0000
  P   P42       1.0  0.9364752914982966  0.8227202156197736  0.1805094130675583  1.0000
  Al  Al43      1.0  0.9914999704034525  0.7304057220461367  0.698228128460691  1.0000
  P   P43       1.0  0.9330832886272952  0.8272581286537636  0.6971207087486202  1.0000
  Al  Al44      1.0  0.9890684564525675  0.7355229554869317  0.21483942414175344  1.0000
  P   P44       1.0  0.9296441083307752  0.8317603922032426  0.21373200442968257  1.0000
  Al  Al45      1.0  0.9865836663968697  0.7406145325078599  0.7314507198228192  1.0000
  P   P45       1.0  0.9261581252518518  0.8362265158193551  0.7303433001107482  1.0000
  Al  Al46      1.0  0.9840458709140805  0.7456798984638864  0.2480620155038777  1.0000
  P   P46       1.0  0.9226257191320469  0.8406560129901076  0.2469545957918068  1.0000
  Al  Al47      1.0  0.9814553464560059  0.7507185015652486  0.7646733111849434  1.0000
  P   P47       1.0  0.9190472747699222  0.8450484011933652  0.7635658914728726  1.0000
  Al  Al48      1.0  0.978812375218422  0.755729792937564  0.2812846068660058  1.0000
  P   P48       1.0  0.915423181979162  0.8494032019494159  0.2801771871539349  1.0000
  Al  Al49      1.0  0.9761172451103335  0.7607132266816218  0.7978959025470677  1.0000
  P   P49       1.0  0.9117538355461093  0.8537199408730921  0.7967884828349968  1.0000
  Al  Al50      1.0  0.973370249722612  0.7656682599328497  0.3145071982281339  1.0000
  P   P50       1.0  0.9080396351867601  0.8579981477254484  0.31339977851606304  1.0000
  Al  Al51      1.0  0.970571688296012  0.7705943529204501  0.8311184939091957  1.0000
  P   P51       1.0  0.9042809855032208  0.8622373564649854  0.8300110741971248  1.0000
  Al  Al52      1.0  0.9677218656885755  0.7754909690261993  0.3477297895902582  1.0000
  P   P52       1.0  0.9004782959396329  0.8664371052984182  0.34662236987818734  1.0000
  Al  Al53      1.0  0.9648210923424213  0.7803575748429037  0.8643410852713239  1.0000
  P   P53       1.0  0.8966319807375721  0.8705969367309806  0.8632336655592531  1.0000
  Al  Al54      1.0  0.9618696842499284  0.7851936402325055  0.38095238095238626  1.0000
  P   P54       1.0  0.8927424588909215  0.8747163976162625  0.3798449612403154  1.0000
  Al  Al55      1.0  0.958867962919312  0.7899986383838331  0.897563676633448  1.0000
  P   P55       1.0  0.8888101541002307  0.8787950392055723  0.8964562569213772  1.0000
  Al  Al56      1.0  0.9558162553396023  0.7947720458699883  0.4141749723145144  1.0000
  P   P56       1.0  0.8848354947265588  0.8828324171968213  0.41306755260244354  1.0000
  Al  Al57      1.0  0.9527148939450241  0.7995133427053654  0.9307862679955763  1.0000
  P   P57       1.0  0.8808189137448128  0.8868280917829225  0.9296788482835054  1.0000
  Al  Al58      1.0  0.9495642165787818  0.8042220124022954  0.4473975636766348  1.0000
  P   P58       1.0  0.8767608486965813  0.8907816276997013  0.44629014396456396  1.0000
  Al  Al59      1.0  0.9463645664562583  0.8088975420273083  0.9640088593577004  1.0000
  P   P59       1.0  0.8726617416424717  0.8946925942733103  0.9629014396456296  1.0000
  Al  Al60      1.0  0.9431162921276273  0.8135394222570099  0.48062015503876293  1.0000
  P   P60       1.0  0.8685220391139542  0.8985605654671437  0.4795127353266921  1.0000
  Al  Al61      1.0  0.9398197474398832  0.8181471474335636  0.9972314507198287  1.0000
  P   P61       1.0  0.8643421920647205  0.902385119928248  0.9961240310077578  1.0000
  Al  Al62      1.0  0.9364752914982966  0.8227202156197736  0.513842746400891  1.0000
  P   P62       1.0  0.8601226558215589  0.9061658410332204  0.5127353266888202  1.0000
  Al  Al63      1.0  0.9330832886272952  0.8272581286537636  0.030454042081953417  1.0000
  P   P63       1.0  0.8558638900347537  0.9099023169335944  0.029346622369882544  1.0000
  Al  Al64      1.0  0.9296441083307752  0.8317603922032426  0.5470653377630191  1.0000
  P   P64       1.0  0.8515663586280143  0.9135941406007035  0.5459579180509483  1.0000
  Al  Al65      1.0  0.9261581252518518  0.8362265158193551  0.06367663344408152  1.0000
  P   P65       1.0  0.8472305297479379  0.9172409098700204  0.06256921373201065  1.0000
  Al  Al66      1.0  0.9226257191320469  0.8406560129901076  0.5802879291251434  1.0000
  P   P66       1.0  0.8428568757130125  0.9208422274849662  0.5791805094130725  1.0000
  Al  Al67      1.0  0.9190472747699222  0.8450484011933652  0.09689922480620963  1.0000
  P   P67       1.0  0.8384458729621653  0.9243977011401854  0.09579180509413876  1.0000
  Al  Al68      1.0  0.915423181979162  0.8494032019494159  0.6135105204872715  1.0000
  P   P68       1.0  0.8339980020028627  0.9279069435242807  0.6124031007752007  1.0000
  Al  Al69      1.0  0.9117538355461093  0.8537199408730921  0.13012181616833005  1.0000
  P   P69       1.0  0.8295137473587666  0.931369572362005  0.12901439645625917  1.0000
  Al  Al70      1.0  0.9080396351867601  0.8579981477254484  0.6467331118493957  1.0000
  P   P70       1.0  0.8249935975169532  0.9347852104559042  0.6456256921373249  1.0000
  Al  Al71      1.0  0.9042809855032208  0.8622373564649854  0.163344407530462  1.0000
  P   P71       1.0  0.8204380448747006  0.9381534857274052  0.16223698781839113  1.0000
  Al  Al72      1.0  0.9004782959396329  0.8664371052984182  0.67995570321152  1.0000
  P   P72       1.0  0.8158475856858503  0.94147403125735  0.6788482834994491  1.0000
  Al  Al73      1.0  0.8966319807375721  0.8705969367309806  0.19656699889258625  1.0000
  P   P73       1.0  0.811222720006747  0.9447464853259643  0.19545957918051535  1.0000
  Al  Al74      1.0  0.8927424588909215  0.8747163976162625  0.7131782945736519  1.0000
  P   P74       1.0  0.8065639516417669  0.9479704914522614  0.712070874861581  1.0000
  Al  Al75      1.0  0.8888101541002307  0.8787950392055723  0.2297895902547105  1.0000
  P   P75       1.0  0.8018717880884364  0.9511456984328746  0.22868217054263962  1.0000
  Al  Al76      1.0  0.8848354947265588  0.8828324171968213  0.7464008859357761  1.0000
  P   P76       1.0  0.7971467404821475  0.9542717603803162  0.7452934662237053  1.0000
  Al  Al77      1.0  0.8808189137448128  0.8868280917829225  0.2630121816168425  1.0000
  P   P77       1.0  0.7923893235404784  0.9573483367606551  0.2619047619047716  1.0000
  Al  Al78      1.0  0.8767608486965813  0.8907816276997013  0.7796234772979005  1.0000
  P   P78       1.0  0.7876000555071236  0.960375092430613  0.7785160575858296  1.0000
  Al  Al79      1.0  0.8726617416424717  0.8946925942733103  0.2962347729789667  1.0000
  P   P79       1.0  0.7827794580954388  0.9633516976740737  0.2951273532668959  1.0000
  Al  Al80      1.0  0.8685220391139542  0.8985605654671437  0.8128460686600324  1.0000
  P   P80       1.0  0.7779280564316096  0.9662778282379982  0.8117386489479615  1.0000
  Al  Al81      1.0  0.8643421920647205  0.902385119928248  0.32945736434109096  1.0000
  P   P81       1.0  0.7730463789974468  0.9691531653677494  0.3283499446290201  1.0000
  Al  Al82      1.0  0.8601226558215589  0.9061658410332204  0.8460686600221567  1.0000
  P   P82       1.0  0.7681349575728175  0.9719773958418131  0.8449612403100858  1.0000
  Al  Al83      1.0  0.8558638900347537  0.9099023169335944  0.362679955703223  1.0000
  P   P83       1.0  0.7631943271777154  0.9747502120059199  0.3615725359911521  1.0000
  Al  Al84      1.0  0.8515663586280143  0.9135941406007035  0.8792912513842809  1.0000
  P   P84       1.0  0.7582250260139798  0.9774713118065584  0.87818383167221  1.0000
  Al  Al85      1.0  0.8472305297479379  0.9172409098700204  0.3959025470653472  1.0000
  P   P85       1.0  0.7532275954066667  0.9801403988238792  0.3947951273532764  1.0000
  Al  Al86      1.0  0.8428568757130125  0.9208422274849662  0.9125138427464129  1.0000
  P   P86       1.0  0.7482025797450809  0.9827571823039851  0.911406423034342  1.0000
  Al  Al87      1.0  0.8384458729621653  0.9243977011401854  0.42912513842747146  1.0000
  P   P87       1.0  0.7431505264234723  0.9853213771906039  0.4280177187154006  1.0000
  Al  Al88      1.0  0.8339980020028627  0.9279069435242807  0.9457364341085371  1.0000
  P   P88       1.0  0.7380719857814076  0.9878327041561414  0.9446290143964663  1.0000
  Al  Al89      1.0  0.8295137473587666  0.931369572362005  0.46234772978959576  1.0000
  P   P89       1.0  0.7329675110438187  0.9902908896321085  0.46124031007752486  1.0000
  Al  Al90      1.0  0.8249935975169532  0.9347852104559042  0.9789590254706537  1.0000
  P   P90       1.0  0.7278376582607381  0.9926956658389227  0.9778516057585829  1.0000
  Al  Al91      1.0  0.8204380448747006  0.9381534857274052  0.49557032115171995  1.0000
  P   P91       1.0  0.7226829862467264  0.9950467708150781  0.4944629014396491  1.0000
  Al  Al92      1.0  0.8158475856858503  0.94147403125735  0.012181616832786232  1.0000
  P   P92       1.0  0.7175040565199983  0.9973439484456824  0.011074197120715355  1.0000
  Al  Al93      1.0  0.811222720006747  0.9447464853259643  0.5287929125138519  1.0000
  P   P93       1.0  0.7123014332412537  0.999586948490356  0.527685492801781  1.0000
  Al  Al94      1.0  0.8065639516417669  0.9479704914522614  0.045404208194910485  1.0000
  P   P94       1.0  0.7070756831522234  0.00177552661049174  0.044296788482839605  1.0000
  Al  Al95      1.0  0.8018717880884364  0.9511456984328746  0.5620155038759762  1.0000
  P   P95       1.0  0.701827375513929  0.003909444395871153  0.5609080841639054  1.0000
  Al  Al96      1.0  0.7971467404821475  0.9542717603803162  0.07862679955704244  1.0000
  P   P96       1.0  0.6965570820446734  0.00598846939063713  0.07751937984497156  1.0000
  Al  Al97      1.0  0.7923893235404785  0.957348336760655  0.5952380952381005  1.0000
  P   P97       1.0  0.6912653768577605  0.008012375118613635  0.5941306755260296  1.0000
  Al  Al98      1.0  0.7876000555071236  0.960375092430613  0.1118493909191667  1.0000
  P   P98       1.0  0.6859528363989541  0.00998094110797898  0.11074197120709584  1.0000
  Al  Al99      1.0  0.7827794580954388  0.9633516976740737  0.6284606866002324  1.0000
  P   P99       1.0  0.6806200393836853  0.01189395291528128  0.6273532668881615  1.0000
  Al  Al100     1.0  0.7779280564316096  0.9662778282379982  0.14507198228129095  1.0000
  P   P100      1.0  0.6752675667340086  0.01375120214879888  0.14396456256922005  1.0000
  Al  Al101     1.0  0.7730463789974469  0.9691531653677494  0.6616832779623567  1.0000
  P   P101      1.0  0.6698960015153216  0.015552486491241968  0.6605758582502859  1.0000
  Al  Al102     1.0  0.7681349575728175  0.9719773958418131  0.1782945736434229  1.0000
  P   P102      1.0  0.6645059288728482  0.017297609721790286  0.17718715393135204  1.0000
  Al  Al103     1.0  0.7631943271777154  0.9747502120059199  0.694905869324481  1.0000
  P   P103      1.0  0.6590979359678977  0.018986381737470026  0.6937984496124101  1.0000
  Al  Al104     1.0  0.7582250260139798  0.9774713118065584  0.21151716500554718  1.0000
  P   P104      1.0  0.6536726119139017  0.020618618573861047  0.21040974529347628  1.0000
  Al  Al105     1.0  0.7532275954066668  0.9801403988238789  0.7281284606866129  1.0000
  P   P105      1.0  0.6482305477122412  0.022194142425137953  0.727021040974542  1.0000
  Al  Al106     1.0  0.7482025797450809  0.9827571823039851  0.24473975636767142  1.0000
  P   P106      1.0  0.6427723361878647  0.02371278166343771  0.24363233665560055  1.0000
  Al  Al107     1.0  0.7431505264234723  0.9853213771906039  0.7613510520487371  1.0000
  P   P107      1.0  0.6372985719247116  0.025174370857557138  0.7602436323366663  1.0000
  Al  Al108     1.0  0.7380719857814076  0.9878327041561414  0.2779623477298034  1.0000
  P   P108      1.0  0.6318098512009404  0.026578750790973604  0.27685492801773254  1.0000
  Al  Al109     1.0  0.7329675110438187  0.9902908896321083  0.7945736434108613  1.0000
  P   P109      1.0  0.6263067719239741  0.027925768479188262  0.7934662236987905  1.0000
  Al  Al110     1.0  0.7278376582607381  0.9926956658389227  0.3111849390919277  1.0000
  P   P110      1.0  0.6207899335653684  0.029215277186392274  0.3100775193798568  1.0000
  Al  Al111     1.0  0.7226829862467264  0.9950467708150781  0.8277962347729934  1.0000
  P   P111      1.0  0.6152599370955084  0.03044713644145136  0.8266888150609225  1.0000
  Al  Al112     1.0  0.7175040565199983  0.9973439484456824  0.3444075304540519  1.0000
  P   P112      1.0  0.6097173849181428  0.03162121205320645  0.3433001107419811  1.0000
  Al  Al113     1.0  0.7123014332412538  0.999586948490356  0.8610188261351176  1.0000
  P   P113      1.0  0.6041628808047617  0.03273737612509331  0.8599114064230468  1.0000
  Al  Al114     1.0  0.7070756831522234  0.00177552661049174  0.37763012181617617  1.0000
  P   P114      1.0  0.5985970298288255  0.03379550706907408  0.3765227021041053  1.0000
  Al  Al115     1.0  0.701827375513929  0.003909444395871153  0.8942414174972342  1.0000
  P   P115      1.0  0.5930204382998521  0.03479548961888179  0.8931339977851633  1.0000
  Al  Al116     1.0  0.6965570820446734  0.00598846939063713  0.41085271317830047  1.0000
  P   P116      1.0  0.5874337136973686  0.0357372148425783  0.40974529346622957  1.0000
  Al  Al117     1.0  0.6912653768577605  0.008012375118613635  0.9274640088593661  1.0000
  P   P117      1.0  0.5818374646047374  0.03662058015441838  0.9263565891472952  1.0000
  Al  Al118     1.0  0.6859528363989541  0.00998094110797898  0.44407530454043237  1.0000
  P   P118      1.0  0.5762323006428595  0.037445489326027204  0.44296788482836147  1.0000
  Al  Al119     1.0  0.6806200393836853  0.01189395291528128  0.9606866002214904  1.0000
  P   P119      1.0  0.5706188324037674  0.038211852496881304  0.9595791805094196  1.0000
  Al  Al120     1.0  0.6752675667340086  0.01375120214879888  0.4772978959025566  1.0000
  P   P120      1.0  0.5649976713841098  0.038919586184098076  0.47619047619048577  1.0000
  Al  Al121     1.0  0.6698960015153216  0.015552486491241968  0.9939091915836223  1.0000
  P   P121      1.0  0.5593694299185401  0.039568613291529164  0.9928017718715515  1.0000
  Al  Al122     1.0  0.6645059288728482  0.017297609721790286  0.5105204872646809  1.0000
  P   P122      1.0  0.5537347211130115  0.04015886311815997  0.5094130675526101  1.0000
  Al  Al123     1.0  0.6590979359678977  0.018986381737470026  0.027131782945747147  1.0000
  P   P123      1.0  0.5480941587779896  0.04069027136581038  0.026024363233676275  1.0000
  Al  Al124     1.0  0.6536726119139017  0.020618618573861047  0.5437430786268128  1.0000
  P   P124      1.0  0.5424483573615873  0.04116278014613961  0.542635658914742  1.0000
  Al  Al125     1.0  0.6482305477122412  0.022194142425137953  0.06035437430787141  1.0000
  P   P125      1.0  0.5367979318826309  0.04157633798695204  0.05924695459580053  1.0000
  Al  Al126     1.0  0.6427723361878647  0.02371278166343771  0.5769656699889372  1.0000
  P   P126      1.0  0.5311434978636631  0.04193089983780429  0.5758582502768663  1.0000
  Al  Al127     1.0  0.6372985719247116  0.025174370857557138  0.09357696567000337  1.0000
  P   P127      1.0  0.525485671263893  0.0422264270749122  0.0924695459579325  1.0000
  Al  Al128     1.0  0.6318098512009404  0.026578750790973604  0.6101882613510614  1.0000
  P   P128      1.0  0.5198250684120961  0.042462887505359204  0.6090808416389905  1.0000
  Al  Al129     1.0  0.6263067719239741  0.027925768479188262  0.1267995570321276  1.0000
  P   P129      1.0  0.5141623059394758  0.042640255370602675  0.12569213732005674  1.0000
  Al  Al130     1.0  0.6207899335653685  0.029215277186392274  0.6434108527131933  1.0000
  P   P130      1.0  0.5084980007124912  0.042758511349280104  0.6423034330011224  1.0000
  Al  Al131     1.0  0.6152599370955084  0.03044713644145136  0.16002214839425188  1.0000
  P   P131      1.0  0.5028327697656595  0.04281764255931364  0.15891472868218098  1.0000
  Al  Al132     1.0  0.6097173849181429  0.03162121205320645  0.6766334440753176  1.0000
  P   P132      1.0  0.49716723023434056  0.04281764255931364  0.6755260243632467  1.0000
  Al  Al133     1.0  0.6041628808047617  0.03273737612509331  0.19324473975638384  1.0000
  P   P133      1.0  0.4915019992875088  0.042758511349280104  0.19213732004431294  1.0000
  Al  Al134     1.0  0.5985970298288256  0.03379550706907408  0.7098560354374418  1.0000
  P   P134      1.0  0.48583769406052424  0.042640255370602675  0.708748615725371  1.0000
  Al  Al135     1.0  0.5930204382998521  0.03479548961888179  0.22646733111850811  1.0000
  P   P135      1.0  0.4801749315879038  0.042462887505359204  0.2253599114064372  1.0000
  Al  Al136     1.0  0.5874337136973689  0.0357372148425783  0.7430786267995662  1.0000
  P   P136      1.0  0.4745143287361069  0.0422264270749122  0.7419712070874952  1.0000
  Al  Al137     1.0  0.5818374646047374  0.03662058015441838  0.2596899224806246  1.0000
  P   P137      1.0  0.4688565021363368  0.04193089983780429  0.25858250276855377  1.0000
  Al  Al138     1.0  0.5762323006428597  0.037445489326027204  0.7763012181616903  1.0000
  P   P138      1.0  0.4632020681173692  0.04157633798695204  0.7751937984496194  1.0000
  Al  Al139     1.0  0.5706188324037674  0.038211852496881304  0.2929125138427566  1.0000
  P   P139      1.0  0.4575516426384126  0.04116278014613961  0.2918050941306858  1.0000
  Al  Al140     1.0  0.56499767138411  0.038919586184098076  0.8095238095238223  1.0000
  P   P140      1.0  0.4519058412220103  0.04069027136581038  0.8084163898117515  1.0000
  Al  Al141     1.0  0.5593694299185401  0.039568613291529164  0.3261351052048886  1.0000
  P   P141      1.0  0.44626527888698836  0.04015886311815997  0.32502768549281774  1.0000
  Al  Al142     1.0  0.5537347211130117  0.04015886311815997  0.8427464008859389  1.0000
  P   P142      1.0  0.44063057008145984  0.039568613291529164  0.8416389811738679  1.0000
  Al  Al143     1.0  0.5480941587779896  0.04069027136581038  0.3593576965670051  1.0000
  P   P143      1.0  0.43500232861589005  0.038919586184098076  0.3582502768549342  1.0000
  Al  Al144     1.0  0.5424483573615875  0.04116278014613961  0.8759689922480709  1.0000
  P   P144      1.0  0.4293811675962326  0.038211852496881304  0.874861572536  1.0000
  Al  Al145     1.0  0.5367979318826309  0.04157633798695204  0.3925802879291371  1.0000
  P   P145      1.0  0.42376769935714037  0.037445489326027204  0.3914728682170662  1.0000
  Al  Al146     1.0  0.5311434978636632  0.04193089983780429  0.9091915836102028  1.0000
  P   P146      1.0  0.4181625353952625  0.03662058015441838  0.908084163898132  1.0000
  Al  Al147     1.0  0.525485671263893  0.0422264270749122  0.42580287929126903  1.0000
  P   P147      1.0  0.4125662863026312  0.0357372148425783  0.4246954595791982  1.0000
  Al  Al148     1.0  0.5198250684120962  0.042462887505359204  0.9424141749723194  1.0000
  P   P148      1.0  0.4069795617001479  0.03479548961888179  0.9413067552602485  1.0000
  Al  Al149     1.0  0.5141623059394758  0.042640255370602675  0.45902547065338556  1.0000
  P   P149      1.0  0.4014029701711744  0.03379550706907408  0.4579180509413147  1.0000
  Al  Al150     1.0  0.5084980007124912  0.042758511349280104  0.9756367663344513  1.0000
  P   P150      1.0  0.39583711919523834  0.03273737612509331  0.9745293466223804  1.0000
  Al  Al151     1.0  0.5028327697656595  0.04281764255931364  0.4922480620155175  1.0000
  P   P151      1.0  0.3902826150818572  0.03162121205320645  0.4911406423034467  1.0000
  Al  Al152     1.0  0.49716723023434056  0.04281764255931364  0.008859357696583813  1.0000
  P   P152      1.0  0.38474006290449164  0.03044713644145136  0.007751937984512938  1.0000
  Al  Al153     1.0  0.4915019992875088  0.042758511349280104  0.5254706533776495  1.0000
  P   P153      1.0  0.3792100664346315  0.029215277186392274  0.5243632336655787  1.0000
  Al  Al154     1.0  0.48583769406052424  0.042640255370602675  0.04208194905870037  1.0000
  P   P154      1.0  0.3736932280760259  0.02792576847918804  0.04097452934662949  1.0000
  Al  Al155     1.0  0.4801749315879038  0.042462887505359204  0.558693244739766  1.0000
  P   P155      1.0  0.36819014879905954  0.026578750790973382  0.5575858250276952  1.0000
  Al  Al156     1.0  0.4745143287361069  0.0422264270749122  0.07530454042083233  1.0000
  P   P156      1.0  0.3627014280752883  0.025174370857557138  0.07419712070876146  1.0000
  Al  Al157     1.0  0.4688565021363368  0.04193089983780429  0.591915836101898  1.0000
  P   P157      1.0  0.3572276638121352  0.023712781663437488  0.5908084163898272  1.0000
  Al  Al158     1.0  0.4632020681173692  0.04157633798695204  0.10852713178296429  1.0000
  P   P158      1.0  0.3517694522877589  0.022194142425137953  0.10741971207089342  1.0000
  Al  Al159     1.0  0.4575516426384126  0.04116278014613961  0.6251384274640299  1.0000
  P   P159      1.0  0.34632738808609814  0.020618618573861047  0.6240310077519591  1.0000
  Al  Al160     1.0  0.4519058412220103  0.04069027136581038  0.14174972314509623  1.0000
  P   P160      1.0  0.3409020640321023  0.018986381737470026  0.14064230343302536  1.0000
  Al  Al161     1.0  0.44626527888698836  0.04015886311815997  0.6583610188261465  1.0000
  P   P161      1.0  0.3354940711271517  0.017297609721790286  0.6572535991140757  1.0000
  Al  Al162     1.0  0.44063057008145984  0.039568613291529164  0.17497231450721282  1.0000
  P   P162      1.0  0.3301039984846785  0.015552486491241746  0.17386489479514192  1.0000
  Al  Al163     1.0  0.43500232861589005  0.038919586184098076  0.6915836101882784  1.0000
  P   P163      1.0  0.3247324332659913  0.01375120214879888  0.6904761904762076  1.0000
  Al  Al164     1.0  0.4293811675962326  0.038211852496881304  0.20819490586934475  1.0000
  P   P164      1.0  0.3193799606163147  0.01189395291528128  0.20708748615727385  1.0000
  Al  Al165     1.0  0.42376769935714037  0.037445489326027204  0.7248062015504104  1.0000
  P   P165      1.0  0.3140471636010458  0.00998094110797898  0.7236987818383396  1.0000
  Al  Al166     1.0  0.4181625353952625  0.03662058015441838  0.2414174972314767  1.0000
  P   P166      1.0  0.30873462314223965  0.008012375118613635  0.2403100775194058  1.0000
  Al  Al167     1.0  0.4125662863026312  0.0357372148425783  0.758028792912527  1.0000
  P   P167      1.0  0.3034429179553265  0.005988469390636908  0.7569213732004562  1.0000
  Al  Al168     1.0  0.4069795617001479  0.03479548961888179  0.2746400885935933  1.0000
  P   P168      1.0  0.29817262448607107  0.003909444395871153  0.27353266888152244  1.0000
  Al  Al169     1.0  0.4014029701711744  0.03379550706907408  0.791251384274659  1.0000
  P   P169      1.0  0.2929243168477766  0.001775526610491518  0.7901439645625882  1.0000
  Al  Al170     1.0  0.39583711919523834  0.03273737612509331  0.3078626799557252  1.0000
  P   P170      1.0  0.2876985667587461  0.999586948490356  0.30675526024365435  1.0000
  Al  Al171     1.0  0.3902826150818572  0.03162121205320645  0.8244739756367909  1.0000
  P   P171      1.0  0.28249594348000173  0.9973439484456823  0.8233665559247201  1.0000
  Al  Al172     1.0  0.38474006290449164  0.03044713644145136  0.34108527131785715  1.0000
  P   P172      1.0  0.2773170137532735  0.9950467708150781  0.3399778516057863  1.0000
  Al  Al173     1.0  0.3792100664346315  0.029215277186392274  0.8576965669989075  1.0000
  P   P173      1.0  0.2721623417392616  0.9926956658389225  0.8565891472868367  1.0000
  Al  Al174     1.0  0.3736932280760259  0.02792576847918804  0.37430786267997374  1.0000
  P   P174      1.0  0.2670324889561812  0.9902908896321083  0.3732004429679029  1.0000
  Al  Al175     1.0  0.36819014879905954  0.026578750790973382  0.8909191583610394  1.0000
  P   P175      1.0  0.26192801421859224  0.9878327041561413  0.8898117386489686  1.0000
  Al  Al176     1.0  0.3627014280752883  0.025174370857557138  0.40753045404209026  1.0000
  P   P176      1.0  0.25684947357652754  0.9853213771906039  0.4064230343300194  1.0000
  Al  Al177     1.0  0.3572276638121352  0.023712781663437488  0.9241417497231561  1.0000
  P   P177      1.0  0.25179742025491914  0.9827571823039851  0.9230343300110851  1.0000
  Al  Al178     1.0  0.3517694522877589  0.022194142425137953  0.4407530454042222  1.0000
  P   P178      1.0  0.2467724045933332  0.9801403988238789  0.4396456256921514  1.0000
  Al  Al179     1.0  0.34632738808609814  0.020618618573861047  0.9573643410852726  1.0000
  P   P179      1.0  0.2417749739860202  0.9774713118065583  0.9562569213732017  1.0000
  Al  Al180     1.0  0.3409020640321023  0.018986381737470026  0.4739756367663388  1.0000
  P   P180      1.0  0.23680567282228468  0.9747502120059199  0.47286821705426796  1.0000
  Al  Al181     1.0  0.3354940711271517  0.017297609721790286  0.9905869324474045  1.0000
  P   P181      1.0  0.23186504242718234  0.9719773958418131  0.9894795127353336  1.0000
  Al  Al182     1.0  0.3301039984846785  0.015552486491241746  0.5071982281284708  1.0000
  P   P182      1.0  0.2269536210025531  0.9691531653677494  0.5060908084164  1.0000
  Al  Al183     1.0  0.3247324332659913  0.01375120214879888  0.023809523809537034  1.0000
  P   P183      1.0  0.22207194356839033  0.9662778282379982  0.02270210409746616  1.0000
  Al  Al184     1.0  0.3193799606163147  0.01189395291528128  0.5404208194906027  1.0000
  P   P184      1.0  0.21722054190456108  0.9633516976740737  0.5393133997785319  1.0000
  Al  Al185     1.0  0.3140471636010458  0.00998094110797898  0.05703211517166899  1.0000
  P   P185      1.0  0.21239994449287647  0.960375092430613  0.05592469545959811  1.0000
  Al  Al186     1.0  0.30873462314223965  0.008012375118613635  0.5736434108527193  1.0000
  P   P186      1.0  0.20761067645952147  0.957348336760655  0.5725359911406485  1.0000
  Al  Al187     1.0  0.3034429179553265  0.005988469390636908  0.09025470653378555  1.0000
  P   P187      1.0  0.20285325951785238  0.9542717603803162  0.08914728682171467  1.0000
  Al  Al188     1.0  0.29817262448607107  0.003909444395871153  0.6068660022148512  1.0000
  P   P188      1.0  0.19812821191156363  0.9511456984328746  0.6057585825027804  1.0000
  Al  Al189     1.0  0.2929243168477766  0.001775526610491518  0.1234772978959175  1.0000
  P   P189      1.0  0.1934360483582329  0.9479704914522611  0.12236987818384663  1.0000
  Al  Al190     1.0  0.2876985667587461  0.999586948490356  0.6400885935769832  1.0000
  P   P190      1.0  0.18877727999325306  0.9447464853259643  0.6389811738649124  1.0000
  Al  Al191     1.0  0.28249594348000173  0.9973439484456823  0.15669988925804945  1.0000
  P   P191      1.0  0.18415241431414966  0.94147403125735  0.15559246954597855  1.0000
  Al  Al192     1.0  0.2773170137532735  0.9950467708150781  0.6733111849390997  1.0000
  P   P192      1.0  0.17956195512529913  0.938153485727405  0.6722037652270288  1.0000
  Al  Al193     1.0  0.27216234173926185  0.9926956658389227  0.189922480620166  1.0000
  P   P193      1.0  0.17500640248304686  0.934785210455904  0.18881506090809513  1.0000
  Al  Al194     1.0  0.2670324889561812  0.9902908896321083  0.7065337763012317  1.0000
  P   P194      1.0  0.17048625264123346  0.931369572362005  0.7054263565891609  1.0000
  Al  Al195     1.0  0.26192801421859224  0.9878327041561413  0.22314507198229797  1.0000
  P   P195      1.0  0.16600199799713727  0.9279069435242807  0.2220376522702271  1.0000
  Al  Al196     1.0  0.2568494735765277  0.9853213771906039  0.7397563676633636  1.0000
  P   P196      1.0  0.1615541270378348  0.9243977011401854  0.7386489479512928  1.0000
  Al  Al197     1.0  0.25179742025491914  0.9827571823039851  0.25636766334442995  1.0000
  P   P197      1.0  0.15714312428698754  0.9208422274849662  0.25526024363235905  1.0000
  Al  Al198     1.0  0.2467724045933332  0.9801403988238789  0.7729789590254803  1.0000
  P   P198      1.0  0.15276947025206203  0.9172409098700204  0.7718715393134095  1.0000
  Al  Al199     1.0  0.2417749739860202  0.9774713118065583  0.2895902547065465  1.0000
  P   P199      1.0  0.14843364137198553  0.9135941406007035  0.28848283499447563  1.0000
  Al  Al200     1.0  0.23680567282228468  0.9747502120059199  0.8062015503876122  1.0000
  P   P200      1.0  0.14413610996524634  0.9099023169335944  0.8050941306755414  1.0000
  Al  Al201     1.0  0.23186504242718256  0.9719773958418131  0.32281284606867844  1.0000
  P   P201      1.0  0.13987734417844108  0.9061658410332204  0.3217054263566076  1.0000
  Al  Al202     1.0  0.2269536210025531  0.9691531653677494  0.8394241417497442  1.0000
  P   P202      1.0  0.1356578079352794  0.902385119928248  0.8383167220376734  1.0000
  Al  Al203     1.0  0.22207194356839033  0.9662778282379982  0.3560354374308104  1.0000
  P   P203      1.0  0.13147796088604574  0.8985605654671436  0.35492801771873955  1.0000
  Al  Al204     1.0  0.21722054190456133  0.9633516976740737  0.8726467331118607  1.0000
  P   P204      1.0  0.1273382583575285  0.8946925942733103  0.8715393133997899  1.0000
  Al  Al205     1.0  0.21239994449287647  0.960375092430613  0.389258028792927  1.0000
  P   P205      1.0  0.1232391513034187  0.8907816276997013  0.3881506090808561  1.0000
  Al  Al206     1.0  0.20761067645952147  0.957348336760655  0.9058693244739926  1.0000
  P   P206      1.0  0.11918108625518725  0.8868280917829223  0.9047619047619218  1.0000
  Al  Al207     1.0  0.20285325951785238  0.9542717603803162  0.42248062015505894  1.0000
  P   P207      1.0  0.11516450527344119  0.8828324171968212  0.42137320044298804  1.0000
  Al  Al208     1.0  0.19812821191156363  0.9511456984328746  0.9390919158361246  1.0000
  P   P208      1.0  0.11118984589976938  0.8787950392055723  0.9379844961240538  1.0000
  Al  Al209     1.0  0.19343604835823305  0.9479704914522614  0.4557032115171909  1.0000
  P   P209      1.0  0.10725754110907842  0.8747163976162625  0.45459579180512  1.0000
  Al  Al210     1.0  0.18877727999325306  0.9447464853259643  0.9723145071982565  1.0000
  P   P210      1.0  0.10336801926242796  0.8705969367309806  0.9712070874861857  1.0000
  Al  Al211     1.0  0.18415241431414966  0.94147403125735  0.4889258028793074  1.0000
  P   P211      1.0  0.09952170406036709  0.866437105298418  0.4878183831672366  1.0000
  Al  Al212     1.0  0.1795619551252993  0.9381534857274052  0.005537098560373696  1.0000
  P   P212      1.0  0.0957190144967794  0.8622373564649854  0.004429678848302821  1.0000
  Al  Al213     1.0  0.17500640248304686  0.934785210455904  0.5221483942414394  1.0000
  P   P213      1.0  0.09196036481323998  0.8579981477254484  0.5210409745293686  1.0000
  Al  Al214     1.0  0.17048625264123346  0.931369572362005  0.038759689922505655  1.0000
  P   P214      1.0  0.08824616445389069  0.8537199408730921  0.037652270210434775  1.0000
  Al  Al215     1.0  0.16600199799713727  0.9279069435242807  0.5553709856035713  1.0000
  P   P215      1.0  0.08457681802083786  0.8494032019494157  0.5542635658915005  1.0000
  Al  Al216     1.0  0.1615541270378348  0.9243977011401854  0.0719822812846376  1.0000
  P   P216      1.0  0.08095272523007786  0.8450484011933652  0.07087486157256674  1.0000
  Al  Al217     1.0  0.15714312428698754  0.9208422274849662  0.5885935769656878  1.0000
  P   P217      1.0  0.07737428086795309  0.8406560129901076  0.587486157253617  1.0000
  Al  Al218     1.0  0.15276947025206203  0.9172409098700204  0.10520487264675417  1.0000
  P   P218      1.0  0.07384187474814814  0.8362265158193551  0.1040974529346833  1.0000
  Al  Al219     1.0  0.14843364137198553  0.9135941406007035  0.6218161683278199  1.0000
  P   P219      1.0  0.07035589166922485  0.8317603922032424  0.620708748615749  1.0000
  Al  Al220     1.0  0.14413610996524634  0.9099023169335944  0.13842746400888611  1.0000
  P   P220      1.0  0.06691671137270498  0.8272581286537636  0.13732004429681524  1.0000
  Al  Al221     1.0  0.13987734417844108  0.9061658410332204  0.6550387596899518  1.0000
  P   P221      1.0  0.06352470850170332  0.8227202156197735  0.6539313399778809  1.0000
  Al  Al222     1.0  0.1356578079352794  0.902385119928248  0.17165005537101807  1.0000
  P   P222      1.0  0.0601802525601169  0.8181471474335634  0.1705426356589472  1.0000
  Al  Al223     1.0  0.13147796088604574  0.8985605654671436  0.6882613510520684  1.0000
  P   P223      1.0  0.056883707872372825  0.8135394222570099  0.6871539313399976  1.0000
  Al  Al224     1.0  0.1273382583575285  0.8946925942733103  0.20487264673313466  1.0000
  P   P224      1.0  0.05363543354374176  0.8088975420273083  0.20376522702106376  1.0000
  Al  Al225     1.0  0.1232391513034187  0.8907816276997013  0.7214839424142003  1.0000
  P   P225      1.0  0.050435783421218267  0.8042220124022954  0.7203765227021295  1.0000
  Al  Al226     1.0  0.11918108625518725  0.8868280917829223  0.2380952380952512  1.0000
  P   P226      1.0  0.04728510605497585  0.7995133427053654  0.2369878183831803  1.0000
  Al  Al227     1.0  0.11516450527344119  0.8828324171968212  0.7547065337763169  1.0000
  P   P227      1.0  0.04418374466039748  0.7947720458699882  0.7535991140642461  1.0000
  Al  Al228     1.0  0.11118984589976938  0.8787950392055723  0.27131782945738314  1.0000
  P   P228      1.0  0.04113203708068811  0.7899986383838331  0.2702104097453123  1.0000
  Al  Al229     1.0  0.10725754110907842  0.8747163976162625  0.7879291251384335  1.0000
  P   P229      1.0  0.03813031575007173  0.7851936402325054  0.7868217054263625  1.0000
  Al  Al230     1.0  0.10336801926242796  0.8705969367309806  0.3045404208194997  1.0000
  P   P230      1.0  0.035178907657578584  0.7803575748429035  0.3034330011074288  1.0000
  Al  Al231     1.0  0.09952170406036709  0.866437105298418  0.8211517165005655  1.0000
  P   P231      1.0  0.032278134311424456  0.7754909690261992  0.8200442967884947  1.0000
  Al  Al232     1.0  0.0957190144967794  0.8622373564649854  0.3377630121816317  1.0000
  P   P232      1.0  0.02942831170398801  0.7705943529204501  0.3366555924695608  1.0000
  Al  Al233     1.0  0.09196036481323998  0.8579981477254484  0.8543743078626974  1.0000
  P   P233      1.0  0.0266297502773881  0.7656682599328497  0.8532668881506266  1.0000
  Al  Al234     1.0  0.08824616445389069  0.8537199408730921  0.37098560354376364  1.0000
  P   P234      1.0  0.02388275488966638  0.7607132266816217  0.36987818383169274  1.0000
  Al  Al235     1.0  0.08457681802083786  0.8494032019494157  0.8875968992248293  1.0000
  P   P235      1.0  0.021187624781578054  0.7557297929375638  0.8864894795127584  1.0000
  Al  Al236     1.0  0.08095272523007786  0.8450484011933652  0.40420819490588017  1.0000
  P   P236      1.0  0.018544653543994195  0.7507185015652486  0.4031007751938093  1.0000
  Al  Al237     1.0  0.07737428086795309  0.8406560129901076  0.9208194905869459  1.0000
  P   P237      1.0  0.015954129085919533  0.7456798984638864  0.919712070874875  1.0000
  Al  Al238     1.0  0.07384187474814814  0.8362265158193551  0.43743078626801213  1.0000
  P   P238      1.0  0.013416333603130237  0.7406145325078598  0.4363233665559413  1.0000
  Al  Al239     1.0  0.07035589166922485  0.8317603922032424  0.9540420819490778  1.0000
  P   P239      1.0  0.010931543547432377  0.7355229554869315  0.952934662237007  1.0000
  Al  Al240     1.0  0.06691671137270498  0.8272581286537636  0.4706533776301441  1.0000
  P   P240      1.0  0.00850002959654761  0.7304057220461366  0.46954595791807324  1.0000
  Al  Al241     1.0  0.06352470850170332  0.8227202156197735  0.9872646733112098  1.0000
  P   P241      1.0  0.006122056624626549  0.7252633896253617  0.986157253599139  1.0000
  Al  Al242     1.0  0.0601802525601169  0.8181471474335634  0.5038759689922607  1.0000
  P   P242      1.0  0.0037978836733956636  0.7200965183986225  0.5027685492801898  1.0000
  Al  Al243     1.0  0.056883707872372825  0.8135394222570099  0.020487264673326917  1.0000
  P   P243      1.0  0.0015277639239386076  0.7149056712130405  0.019379844961256044  1.0000
  Al  Al244     1.0  0.05363543354374176  0.8088975420273083  0.5370985603543926  1.0000
  P   P244      1.0  0.9993119446691162  0.709691413527531  0.5359911406423218  1.0000
  Al  Al245     1.0  0.050435783421218267  0.8042220124022954  0.05370985603545887  1.0000
  P   P245      1.0  0.9971506672866277  0.7044543133512042  0.05260243632338799  1.0000
  Al  Al246     1.0  0.04728510605497585  0.7995133427053654  0.5703211517165245  1.0000
  P   P246      1.0  0.9950441672127169  0.699194941181491  0.5692137320044537  1.0000
  Al  Al247     1.0  0.04418374466039748  0.7947720458699882  0.08693244739759082  1.0000
  P   P247      1.0  0.9929926739165253  0.693913869941996  0.08582502768551996  1.0000
  Al  Al248     1.0  0.04113203708068811  0.7899986383838331  0.6035437430786411  1.0000
  P   P248      1.0  0.9909964108750946  0.6886116749200872  0.6024363233665703  1.0000
  Al  Al249     1.0  0.03813031575007173  0.7851936402325054  0.12015503875970739  1.0000
  P   P249      1.0  0.9890555955490228  0.6832889337042265  0.11904761904763651  1.0000
  Al  Al250     1.0  0.035178907657578584  0.7803575748429035  0.636766334440773  1.0000
  P   P250      1.0  0.9871704393587752  0.6779462261210519  0.6356589147287022  1.0000
  Al  Al251     1.0  0.032278134311424456  0.7754909690261992  0.15337763012183936  1.0000
  P   P251      1.0  0.9853411476616543  0.6725841341722147  0.15227021040976846  1.0000
  Al  Al252     1.0  0.02942831170398801  0.7705943529204501  0.669988925802905  1.0000
  P   P252      1.0  0.9835679197294284  0.6672032419709799  0.6688815060908342  1.0000
  Al  Al253     1.0  0.0266297502773881  0.7656682599328497  0.18660022148397132  1.0000
  P   P253      1.0  0.9818509487266247  0.661804135678595  0.18549280177190042  1.0000
  Al  Al254     1.0  0.02388275488966638  0.7607132266816217  0.7032115171650216  1.0000
  P   P254      1.0  0.980190421689487  0.6563874034404393  0.7021040974529508  1.0000
  Al  Al255     1.0  0.021187624781578054  0.7557297929375638  0.21982281284608784  1.0000
  P   P255      1.0  0.9785865195056014  0.6509536353219542  0.21871539313401697  1.0000
  Al  Al256     1.0  0.018544653543994195  0.7507185015652486  0.7364341085271536  1.0000
  P   P256      1.0  0.9770394168941913  0.6455034232443645  0.7353266888150828  1.0000
  Al  Al257     1.0  0.015954129085919533  0.7456798984638864  0.2530454042082198  1.0000
  P   P257      1.0  0.9755492823870843  0.6400373609201984  0.2519379844961489  1.0000
  Al  Al258     1.0  0.013416333603130237  0.7406145325078598  0.7696566998892855  1.0000
  P   P258      1.0  0.974116278310354  0.6345560437886126  0.7685492801772147  1.0000
  Al  Al259     1.0  0.010931543547432554  0.7355229554869317  0.28626799557035176  1.0000
  P   P259      1.0  0.9727405607666367  0.6290600689505293  0.2851605758582809  1.0000
  Al  Al260     1.0  0.00850002959654761  0.7304057220461366  0.8028792912514174  1.0000
  P   P260      1.0  0.9714222796181267  0.6235500351035896  0.8017718715393466  1.0000
  Al  Al261     1.0  0.006122056624626549  0.7252633896253617  0.31949058693246835  1.0000
  P   P261      1.0  0.9701615784702511  0.6180265424769371  0.3183831672203975  1.0000
  Al  Al262     1.0  0.0037978836733956636  0.7200965183986225  0.836101882613534  1.0000
  P   P262      1.0  0.9689585946560267  0.6124901927658319  0.8349944629014632  1.0000
  Al  Al263     1.0  0.0015277639239386965  0.7149056712130407  0.3527131782946003  1.0000
  P   P263      1.0  0.9678134592210996  0.6069415890661061  0.35160575858252946  1.0000
  Al  Al264     1.0  0.9993119446691162  0.709691413527531  0.8693244739756659  1.0000
  P   P264      1.0  0.9667262969094693  0.601381335808465  0.8682170542635951  1.0000
  Al  Al265     1.0  0.9971506672866277  0.7044543133512042  0.38593576965673226  1.0000
  P   P265      1.0  0.9656972261499011  0.5958100386926451  0.3848283499446614  1.0000
  Al  Al266     1.0  0.9950441672127169  0.699194941181491  0.9025470653377979  1.0000
  P   P266      1.0  0.9647263590430237  0.5902283046214337  0.9014396456257271  1.0000
  Al  Al267     1.0  0.9929926739165255  0.6939138699419963  0.4191583610188488  1.0000
  P   P267      1.0  0.9638138013491193  0.5846367416345549  0.41805094130677795  1.0000
  Al  Al268     1.0  0.9909964108750946  0.6886116749200872  0.9357696566999144  1.0000
  P   P268      1.0  0.962959652476601  0.5790359588424343  0.9346622369878436  1.0000
  Al  Al269     1.0  0.9890555955490228  0.6832889337042265  0.4523809523809808  1.0000
  P   P269      1.0  0.9621640054711853  0.5734265663598465  0.4512735326689099  1.0000
  Al  Al270     1.0  0.9871704393587752  0.6779462261210519  0.9689922480620465  1.0000
  P   P270      1.0  0.9614269470057555  0.5678091752394528  0.9678848283499756  1.0000
  Al  Al271     1.0  0.9853411476616544  0.672584134172215  0.48560354374308196  1.0000
  P   P271      1.0  0.9607485573709202  0.5621843974052371  0.4844961240310111  1.0000
  Al  Al272     1.0  0.9835679197294284  0.6672032419709799  0.002214839424163579  1.0000
  P   P272      1.0  0.9601289104662672  0.5565528455858454  0.0011074197120927046  1.0000
  Al  Al273     1.0  0.9818509487266247  0.661804135678595  0.5188261351052138  1.0000
  P   P273      1.0  0.9595680737923131  0.5509151332478409  0.517718715393143  1.0000
  Al  Al274     1.0  0.980190421689487  0.6563874034404393  0.035437430786295535  1.0000
  P   P274      1.0  0.9590661084431501  0.5452718745288756  0.03433001107422466  1.0000
  Al  Al275     1.0  0.9785865195056014  0.6509536353219544  0.5520487264673458  1.0000
  P   P275      1.0  0.9586230690997911  0.5396236841707899  0.550941306755275  1.0000
  Al  Al276     1.0  0.9770394168941913  0.6455034232443645  0.0686600221483967  1.0000
  P   P276      1.0  0.9582390040242128  0.5339711774526461  0.06755260243632583  1.0000
  Al  Al277     1.0  0.9755492823870843  0.6400373609201984  0.5852713178294778  1.0000
  P   P277      1.0  0.9579139550540986  0.528314970123705  0.584163898117407  1.0000
  Al  Al278     1.0  0.974116278310354  0.6345560437886126  0.10188261351052866  1.0000
  P   P278      1.0  0.957647957598281  0.5226556783363487  0.10077519379845779  1.0000
  Al  Al279     1.0  0.9727405607666367  0.6290600689505293  0.6184939091916097  1.0000
  P   P279      1.0  0.9574410406328842  0.5169939185789617  0.6173864894795389  1.0000
  Al  Al280     1.0  0.9714222796181267  0.6235500351035896  0.13510520487266062  1.0000
  P   P280      1.0  0.9572932266981674  0.5113303076087728  0.13399778516058974  1.0000
  Al  Al281     1.0  0.9701615784702511  0.6180265424769371  0.6517165005537418  1.0000
  P   P281      1.0  0.9572045318960705  0.5056654623846718  0.6506090808416709  1.0000
  Al  Al282     1.0  0.9689585946560267  0.6124901927658319  0.16832779623479255  1.0000
  P   P282      1.0  0.9571749658884585  0.49999999999999983  0.16722037652272168  1.0000
  Al  Al283     1.0  0.9678134592210996  0.6069415890661061  0.6849390919158429  1.0000
  P   P283      1.0  0.9572045318960705  0.4943345376153281  0.6838316722037721  1.0000
  Al  Al284     1.0  0.9667262969094693  0.601381335808465  0.2015503875969245  1.0000
  P   P284      1.0  0.9572932266981674  0.48866969239122704  0.20044296788485363  1.0000
  Al  Al285     1.0  0.9656972261499011  0.5958100386926451  0.7181616832779748  1.0000
  P   P285      1.0  0.9574410406328842  0.48300608142103824  0.717054263565904  1.0000
  Al  Al286     1.0  0.9647263590430237  0.5902283046214337  0.23477297895905647  1.0000
  P   P286      1.0  0.957647957598281  0.47734432166365093  0.2336655592469856  1.0000
  Al  Al287     1.0  0.9638138013491193  0.5846367416345549  0.7513842746401068  1.0000
  P   P287      1.0  0.9579139550540986  0.47168502987629496  0.750276854928036  1.0000
  Al  Al288     1.0  0.962959652476601  0.5790359588424343  0.2679955703211884  1.0000
  P   P288      1.0  0.9582390040242128  0.46602882254735384  0.2668881506091175  1.0000
  Al  Al289     1.0  0.9621640054711853  0.5734265663598465  0.7846068660022387  1.0000
  P   P289      1.0  0.9586230690997911  0.46037631582921  0.7834994462901679  1.0000
  Al  Al290     1.0  0.9614269470057555  0.5678091752394528  0.30121816168328963  1.0000
  P   P290      1.0  0.9590661084431502  0.45472812547112407  0.30011074197121873  1.0000
  Al  Al291     1.0  0.9607485573709202  0.5621843974052371  0.8178294573643707  1.0000
  P   P291      1.0  0.9595680737923131  0.4490848667521589  0.8167220376522999  1.0000
  Al  Al292     1.0  0.9601289104662672  0.5565528455858454  0.3344407530454216  1.0000
  P   P292      1.0  0.9601289104662672  0.4434471544141545  0.3333333333333507  1.0000
  Al  Al293     1.0  0.9595680737923131  0.5509151332478409  0.8510520487265026  1.0000
  P   P293      1.0  0.9607485573709204  0.4378156025947629  0.8499446290144318  1.0000
  Al  Al294     1.0  0.9590661084431501  0.5452718745288756  0.36766334440755355  1.0000
  P   P294      1.0  0.9614269470057556  0.4321908247605468  0.36655592469548265  1.0000
  Al  Al295     1.0  0.9586230690997911  0.5396236841707899  0.8842746400886038  1.0000
  P   P295      1.0  0.9621640054711853  0.42657343364015343  0.883167220376533  1.0000
  Al  Al296     1.0  0.9582390040242128  0.5339711774526461  0.4008859357696855  1.0000
  P   P296      1.0  0.9629596524766011  0.4209640411575657  0.3997785160576146  1.0000
  Al  Al297     1.0  0.9579139550540986  0.528314970123705  0.9174972314507357  1.0000
  P   P297      1.0  0.9638138013491193  0.41536325836544497  0.9163898117386649  1.0000
  Al  Al298     1.0  0.957647957598281  0.5226556783363487  0.43410852713181747  1.0000
  P   P298      1.0  0.9647263590430238  0.40977169537856595  0.43300110741974657  1.0000
  Al  Al299     1.0  0.9574410406328842  0.5169939185789617  0.9507198228128677  1.0000
  P   P299      1.0  0.9656972261499011  0.40418996130735474  0.9496124031007969  1.0000
  Al  Al300     1.0  0.9572932266981674  0.5113303076087728  0.46733111849394937  1.0000
  P   P300      1.0  0.9667262969094693  0.398618664191535  0.46622369878187847  1.0000
  Al  Al301     1.0  0.9572045318960705  0.5056654623846718  0.9839424141749996  1.0000
  P   P301      1.0  0.9678134592210996  0.39305841093389376  0.9828349944629288  1.0000
  Al  Al302     1.0  0.9571749658884585  0.49999999999999983  0.5005537098560505  1.0000
  P   P302      1.0  0.9689585946560267  0.3875098072341678  0.4994462901439797  1.0000
  Al  Al303     1.0  0.9572045318960705  0.4943345376153281  0.0171650055371322  1.0000
  P   P303      1.0  0.9701615784702511  0.3819734575230629  0.01605758582506132  1.0000
  Al  Al304     1.0  0.9572932266981674  0.48866969239122704  0.5337763012181824  1.0000
  P   P304      1.0  0.9714222796181267  0.37644996489641036  0.5326688815061116  1.0000
  Al  Al305     1.0  0.9574410406328842  0.48300608142103824  0.05038759689926415  1.0000
  P   P305      1.0  0.9727405607666367  0.3709399310494706  0.049280177187193276  1.0000
  Al  Al306     1.0  0.957647957598281  0.47734432166365093  0.5669988925803146  1.0000
  P   P306      1.0  0.9741162783103541  0.36544395621138703  0.5658914728682436  1.0000
  Al  Al307     1.0  0.9579139550540986  0.47168502987629496  0.08361018826136532  1.0000
  P   P307      1.0  0.9755492823870843  0.35996263907980164  0.08250276854929445  1.0000
  Al  Al308     1.0  0.9582390040242128  0.46602882254735384  0.6002214839424465  1.0000
  P   P308      1.0  0.9770394168941914  0.3544965767556355  0.5991140642303755  1.0000
  Al  Al309     1.0  0.9586230690997911  0.46037631582921  0.11683277962349728  1.0000
  P   P309      1.0  0.9785865195056014  0.3490463646780456  0.1157253599114264  1.0000
  Al  Al310     1.0  0.9590661084431502  0.45472812547112407  0.6334440753045785  1.0000
  P   P310      1.0  0.980190421689487  0.3436125965595604  0.6323366555925075  1.0000
  Al  Al311     1.0  0.9595680737923131  0.4490848667521589  0.1500553709856292  1.0000
  P   P311      1.0  0.9818509487266247  0.338195864321405  0.14894795127355834  1.0000
  Al  Al312     1.0  0.9601289104662672  0.4434471544141545  0.6666666666667104  1.0000
  P   P312      1.0  0.9835679197294285  0.3327967580290201  0.6655592469546394  1.0000
  Al  Al313     1.0  0.9607485573709204  0.4378156025947629  0.18327796234776117  1.0000
  P   P313      1.0  0.9853411476616545  0.327415865827785  0.1821705426356903  1.0000
  Al  Al314     1.0  0.9614269470057556  0.4321908247605468  0.6998892580288114  1.0000
  P   P314      1.0  0.9871704393587754  0.3220537738789479  0.6987818383167406  1.0000
  Al  Al315     1.0  0.9621640054711853  0.42657343364015343  0.21650055370989313  1.0000
  P   P315      1.0  0.9890555955490228  0.3167110662957735  0.21539313399782226  1.0000
  Al  Al316     1.0  0.9629596524766011  0.4209640411575657  0.7331118493909434  1.0000
  P   P316      1.0  0.9909964108750946  0.3113883250799127  0.7320044296788726  1.0000
  Al  Al317     1.0  0.9638138013491193  0.41536325836544497  0.24972314507202512  1.0000
  P   P317      1.0  0.9929926739165255  0.30608613005800367  0.24861572535995421  1.0000
  Al  Al318     1.0  0.9647263590430238  0.40977169537856595  0.7663344407530753  1.0000
  P   P318      1.0  0.9950441672127172  0.3008050588185088  0.7652270210410045  1.0000
  Al  Al319     1.0  0.9656972261499011  0.40418996130735474  0.28294573643415705  1.0000
  P   P319      1.0  0.9971506672866278  0.2955456866487958  0.2818383167220862  1.0000
  Al  Al320     1.0  0.9667262969094693  0.398618664191535  0.7995570321152073  1.0000
  P   P320      1.0  0.9993119446691162  0.290308586472469  0.7984496124031365  1.0000
  Al  Al321     1.0  0.9678134592210996  0.39305841093389376  0.31616832779625825  1.0000
  P   P321      1.0  0.0015277639239387854  0.28509432878695923  0.31506090808418735  1.0000
  Al  Al322     1.0  0.9689585946560267  0.387509807234168  0.8327796234773392  1.0000
  P   P322      1.0  0.0037978836733957525  0.27990348160137746  0.8316722037652684  1.0000
  Al  Al323     1.0  0.9701615784702511  0.3819734575230629  0.3493909191583902  1.0000
  P   P323      1.0  0.006122056624626549  0.2747366103746382  0.3482834994463193  1.0000
  Al  Al324     1.0  0.9714222796181267  0.37644996489641036  0.8660022148394713  1.0000
  P   P324      1.0  0.008500029596547698  0.2695942779538633  0.8648947951274004  1.0000
  Al  Al325     1.0  0.9727405607666367  0.3709399310494706  0.38261351052052217  1.0000
  P   P325      1.0  0.010931543547432554  0.26447704451306825  0.3815060908084513  1.0000
  Al  Al326     1.0  0.974116278310354  0.36544395621138726  0.8992248062015724  1.0000
  P   P326      1.0  0.013416333603130326  0.2593854674921402  0.8981173864895016  1.0000
  Al  Al327     1.0  0.9755492823870843  0.35996263907980164  0.4158361018826541  1.0000
  P   P327      1.0  0.015954129085919623  0.25432010153611356  0.4147286821705832  1.0000
  Al  Al328     1.0  0.9770394168941914  0.3544965767556355  0.9324473975637044  1.0000
  P   P328      1.0  0.018544653543994195  0.2492814984347514  0.9313399778516336  1.0000
  Al  Al329     1.0  0.9785865195056014  0.3490463646780456  0.44905869324478603  1.0000
  P   P329      1.0  0.02118762478157823  0.244270207062436  0.44795127353271513  1.0000
  Al  Al330     1.0  0.980190421689487  0.3436125965595606  0.9656699889258363  1.0000
  P   P330      1.0  0.02388275488966647  0.2392867733183783  0.9645625692137655  1.0000
  Al  Al331     1.0  0.9818509487266247  0.338195864321405  0.482281284606918  1.0000
  P   P331      1.0  0.0266297502773881  0.23433174006715027  0.48117386489484715  1.0000
  Al  Al332     1.0  0.9835679197294285  0.3327967580290201  0.9988925802879683  1.0000
  P   P332      1.0  0.0294283117039881  0.22940564707954986  0.9977851605758975  1.0000
  Al  Al333     1.0  0.9853411476616545  0.327415865827785  0.5155038759690191  1.0000
  P   P333      1.0  0.032278134311424636  0.2245090309738006  0.5143964562569483  1.0000
  Al  Al334     1.0  0.9871704393587752  0.32205377387894807  0.03211517165010081  1.0000
  P   P334      1.0  0.035178907657578674  0.21964242515709637  0.03100775193802994  1.0000
  Al  Al335     1.0  0.9890555955490228  0.3167110662957735  0.5487264673311512  1.0000
  P   P335      1.0  0.03813031575007182  0.2148063597674945  0.5476190476190803  1.0000
  Al  Al336     1.0  0.9909964108750946  0.3113883250799127  0.06533776301223276  1.0000
  P   P336      1.0  0.0411320370806882  0.21000136161616687  0.06423034330016189  1.0000
  Al  Al337     1.0  0.9929926739165255  0.30608613005800367  0.5819490586932831  1.0000
  P   P337      1.0  0.04418374466039765  0.2052279541300116  0.5808416389812122  1.0000
  Al  Al338     1.0  0.995044167212717  0.300805058818509  0.09856035437436472  1.0000
  P   P338      1.0  0.047285106054975934  0.20048665729463458  0.09745293466229385  1.0000
  Al  Al339     1.0  0.9971506672866278  0.2955456866487958  0.615171650055415  1.0000
  P   P339      1.0  0.05043578342121835  0.1957779875977045  0.6140642303433441  1.0000
  Al  Al340     1.0  0.9993119446691162  0.290308586472469  0.1317829457364659  1.0000
  P   P340      1.0  0.05363543354374185  0.1911024579726915  0.13067552602439503  1.0000
  Al  Al341     1.0  0.0015277639239387854  0.28509432878695923  0.648394241417547  1.0000
  P   P341      1.0  0.056883707872373096  0.18646057774298988  0.6472868217054761  1.0000
  Al  Al342     1.0  0.0037978836733957525  0.27990348160137746  0.16500553709859786  1.0000
  P   P342      1.0  0.06018025256011699  0.18185285256643643  0.16389811738652696  1.0000
  Al  Al343     1.0  0.006122056624626549  0.2747366103746382  0.6816168327796789  1.0000
  P   P343      1.0  0.0635247085017034  0.1772797843802264  0.680509413067608  1.0000
  Al  Al344     1.0  0.008500029596547698  0.2695942779538633  0.19822812846072982  1.0000
  P   P344      1.0  0.06691671137270498  0.1727418713462365  0.19712070874865892  1.0000
  Al  Al345     1.0  0.010931543547432554  0.26447704451306825  0.7148394241417801  1.0000
  P   P345      1.0  0.07035589166922503  0.1682396077967573  0.7137320044297093  1.0000
  Al  Al346     1.0  0.013416333603130326  0.2593854674921402  0.23145071982286178  1.0000
  P   P346      1.0  0.07384187474814814  0.16377348418064483  0.23034330011079088  1.0000
  Al  Al347     1.0  0.015954129085919623  0.25432010153611356  0.748062015503912  1.0000
  P   P347      1.0  0.07737428086795309  0.15934398700989238  0.7469545957918412  1.0000
  Al  Al348     1.0  0.018544653543994195  0.2492814984347514  0.2646733111849937  1.0000
  P   P348      1.0  0.08095272523007786  0.15495159880663475  0.2635658914729228  1.0000
  Al  Al349     1.0  0.02118762478157823  0.244270207062436  0.7812846068660441  1.0000
  P   P349      1.0  0.08457681802083812  0.15059679805058412  0.7801771871539732  1.0000
  Al  Al350     1.0  0.02388275488966647  0.2392867733183783  0.2978959025470949  1.0000
  P   P350      1.0  0.08824616445389069  0.14628005912690797  0.29678848283502407  1.0000
  Al  Al351     1.0  0.0266297502773881  0.23433174006715027  0.8145071982281451  1.0000
  P   P351      1.0  0.09196036481324006  0.14200185227455162  0.8133997785160743  1.0000
  Al  Al352     1.0  0.0294283117039881  0.22940564707954986  0.33111849390919607  1.0000
  P   P352      1.0  0.09571901449677958  0.13776264353501452  0.3300110741971252  1.0000
  Al  Al353     1.0  0.032278134311424636  0.2245090309738006  0.8477297895902771  1.0000
  P   P353      1.0  0.09952170406036727  0.13356289470158172  0.8466223698782063  1.0000
  Al  Al354     1.0  0.035178907657578674  0.21964242515709637  0.36434108527132797  1.0000
  P   P354      1.0  0.103368019262428  0.12940306326901937  0.3632336655592571  1.0000
  Al  Al355     1.0  0.03813031575007182  0.2148063597674945  0.880952380952409  1.0000
  P   P355      1.0  0.10725754110907847  0.1252836023837375  0.8798449612403382  1.0000
  Al  Al356     1.0  0.0411320370806882  0.21000136161616687  0.39756367663345993  1.0000
  P   P356      1.0  0.1111898458997695  0.12120496079442762  0.3964562569213891  1.0000
  Al  Al357     1.0  0.04418374466039765  0.2052279541300116  0.9141749723145103  1.0000
  P   P357      1.0  0.11516450527344145  0.11716758280317872  0.9130675526024394  1.0000
  Al  Al358     1.0  0.047285106054975934  0.20048665729463458  0.4307862679955919  1.0000
  P   P358      1.0  0.1191810862551873  0.11317190821707764  0.42967884828352104  1.0000
  Al  Al359     1.0  0.05043578342121835  0.1957779875977045  0.9473975636766422  1.0000
  P   P359      1.0  0.12323915130341884  0.10921837230029872  0.9462901439645713  1.0000
  Al  Al360     1.0  0.05363543354374185  0.1911024579726915  0.46400885935772385  1.0000
  P   P360      1.0  0.12733825835752857  0.10530740572668967  0.462901439645653  1.0000
  Al  Al361     1.0  0.056883707872373096  0.18646057774298988  0.9806201550387742  1.0000
  P   P361      1.0  0.131477960886046  0.10143943453285616  0.9795127353267034  1.0000
  Al  Al362     1.0  0.06018025256011699  0.18185285256643643  0.4972314507198558  1.0000
  P   P362      1.0  0.13565780793527948  0.0976148800717521  0.49612403100778496  1.0000
  Al  Al363     1.0  0.0635247085017034  0.1772797843802264  0.013842746400906684  1.0000
  P   P363      1.0  0.1398773441784412  0.09383415896677967  0.012735326688835808  1.0000
  Al  Al364     1.0  0.06691671137270498  0.1727418713462365  0.530454042081957  1.0000
  P   P364      1.0  0.14413610996524642  0.09009768306640549  0.5293466223698862  1.0000
  Al  Al365     1.0  0.07035589166922503  0.1682396077967573  0.047065337763038645  1.0000
  P   P365      1.0  0.148433641371986  0.08640585939929615  0.045957918050967765  1.0000
  Al  Al366     1.0  0.07384187474814814  0.16377348418064483  0.5636766334440889  1.0000
  P   P366      1.0  0.1527694702520623  0.08275909012997938  0.5625692137320181  1.0000
  Al  Al367     1.0  0.07737428086795309  0.15934398700989238  0.08028792912517059  1.0000
  P   P367      1.0  0.1571431242869876  0.07915777251503374  0.07918050941309973  1.0000
  Al  Al368     1.0  0.08095272523007786  0.15495159880663475  0.5968992248062208  1.0000
  P   P368      1.0  0.16155412703783467  0.0756022988598148  0.59579180509415  1.0000
  Al  Al369     1.0  0.08457681802083812  0.15059679805058412  0.11351052048730256  1.0000
  P   P369      1.0  0.16600199799713758  0.07209305647571922  0.11240310077523169  1.0000
  Al  Al370     1.0  0.08824616445389069  0.14628005912690797  0.6301218161683528  1.0000
  P   P370      1.0  0.17048625264123354  0.0686304276379949  0.629014396456282  1.0000
  Al  Al371     1.0  0.09196036481324006  0.14200185227455162  0.1467331118494037  1.0000
  P   P371      1.0  0.17500640248304708  0.06521478954409572  0.14562569213733284  1.0000
  Al  Al372     1.0  0.09571901449677958  0.13776264353501452  0.6633444075304847  1.0000
  P   P372      1.0  0.17956195512529935  0.0618465142725948  0.6622369878184139  1.0000
  Al  Al373     1.0  0.09952170406036727  0.13356289470158172  0.17995570321153564  1.0000
  P   P373      1.0  0.18415241431414972  0.058525968742650036  0.17884828349946477  1.0000
  Al  Al374     1.0  0.103368019262428  0.12940306326901937  0.6965669988926168  1.0000
  P   P374      1.0  0.18877727999325297  0.05525351467403583  0.6954595791805459  1.0000
  Al  Al375     1.0  0.10725754110907847  0.1252836023837375  0.2131782945736676  1.0000
  P   P375      1.0  0.1934360483582332  0.05202950854773869  0.21207087486159673  1.0000
  Al  Al376     1.0  0.1111898458997695  0.12120496079442762  0.7297895902547179  1.0000
  P   P376      1.0  0.19812821191156393  0.04885430156712518  0.7286821705426471  1.0000
  Al  Al377     1.0  0.11516450527344145  0.11716758280317872  0.2464008859357996  1.0000
  P   P377      1.0  0.20285325951785269  0.04572823961968373  0.2452934662237287  1.0000
  Al  Al378     1.0  0.1191810862551873  0.11317190821707764  0.7630121816168499  1.0000
  P   P378      1.0  0.20761067645952158  0.04265166323934491  0.7619047619047791  1.0000
  Al  Al379     1.0  0.12323915130341884  0.10921837230029872  0.2796234772979315  1.0000
  P   P379      1.0  0.21239994449287636  0.03962490756938691  0.2785160575858607  1.0000
  Al  Al380     1.0  0.12733825835752857  0.10530740572668967  0.7962347729789818  1.0000
  P   P380      1.0  0.2172205419045614  0.036648302325926266  0.795127353266911  1.0000
  Al  Al381     1.0  0.131477960886046  0.10143943453285616  0.3128460686600635  1.0000
  P   P381      1.0  0.22207194356839086  0.03372217176200154  0.31173864894799264  1.0000
  Al  Al382     1.0  0.13565780793527948  0.0976148800717521  0.8294573643411138  1.0000
  P   P382      1.0  0.2269536210025534  0.030846834632250533  0.828349944629043  1.0000
  Al  Al383     1.0  0.1398773441784412  0.09383415896677967  0.34606866002216463  1.0000
  P   P383      1.0  0.23186504242718264  0.02802260415818685  0.3449612403100938  1.0000
  Al  Al384     1.0  0.14413610996524642  0.09009768306640549  0.8626799557032457  1.0000
  P   P384      1.0  0.2368056728222846  0.0252497879940802  0.8615725359911749  1.0000
  Al  Al385     1.0  0.14843364137198564  0.08640585939929651  0.3792912513842966  1.0000
  P   P385      1.0  0.24177497398602005  0.02252868819344185  0.37818383167222575  1.0000
  Al  Al386     1.0  0.1527694702520623  0.08275909012997938  0.8959025470653778  1.0000
  P   P386      1.0  0.24677240459333372  0.019859601176120734  0.8947951273533069  1.0000
  Al  Al387     1.0  0.1571431242869876  0.07915777251503374  0.41251384274642855  1.0000
  P   P387      1.0  0.25179742025491947  0.01724281769601497  0.4114064230343577  1.0000
  Al  Al388     1.0  0.16155412703783467  0.0756022988598148  0.9291251384275097  1.0000
  P   P388      1.0  0.2568494735765278  0.014678622809396025  0.9280177187154388  1.0000
  Al  Al389     1.0  0.16600199799713758  0.07209305647571922  0.4457364341085605  1.0000
  P   P389      1.0  0.26192801421859235  0.012167295843858561  0.44462901439648966  1.0000
  Al  Al390     1.0  0.17048625264123354  0.0686304276379949  0.9623477297896108  1.0000
  P   P390      1.0  0.2670324889561811  0.009709110367891594  0.96124031007754  1.0000
  Al  Al391     1.0  0.17500640248304672  0.06521478954409608  0.47895902547069247  1.0000
  P   P391      1.0  0.2721623417392615  0.00730433416107763  0.4778516057586216  1.0000
  Al  Al392     1.0  0.17956195512529935  0.0618465142725948  0.9955703211517428  1.0000
  P   P392      1.0  0.27731701375327394  0.004953229184921782  0.994462901439672  1.0000
  Al  Al393     1.0  0.18415241431414972  0.058525968742650036  0.5121816168328245  1.0000
  P   P393      1.0  0.282495943480002  0.002656051554317518  0.5110741971207536  1.0000
  Al  Al394     1.0  0.18877727999325333  0.05525351467403557  0.028792912513875304  1.0000
  P   P394      1.0  0.2876985667587463  0.0004130515096440135  0.02768549280180443  1.0000
  Al  Al395     1.0  0.1934360483582332  0.05202950854773869  0.5454042081949256  1.0000
  P   P395      1.0  0.2929243168477766  0.9982244733895085  0.5442967884828548  1.0000
  Al  Al396     1.0  0.1981282119115635  0.04885430156712536  0.06201550387600726  1.0000
  P   P396      1.0  0.2981726244860708  0.9960905556041288  0.06090808416393638  1.0000
  Al  Al397     1.0  0.20285325951785269  0.04572823961968373  0.5786267995570575  1.0000
  P   P397      1.0  0.3034429179553271  0.9940115306093628  0.5775193798449867  1.0000
  Al  Al398     1.0  0.20761067645952158  0.04265166323934491  0.09523809523813921  1.0000
  P   P398      1.0  0.3087346231422399  0.9919876248813863  0.09413067552606834  1.0000
  Al  Al399     1.0  0.21239994449287636  0.03962490756938691  0.6118493909191896  1.0000
  P   P399      1.0  0.314047163601046  0.990019058892021  0.6107419712071187  1.0000
  Al  Al400     1.0  0.2172205419045614  0.036648302325926266  0.12846068660027116  1.0000
  P   P400      1.0  0.3193799606163147  0.9881060470847188  0.1273532668882003  1.0000
  Al  Al401     1.0  0.22207194356839044  0.03372217176200172  0.6450719822813215  1.0000
  P   P401      1.0  0.3247324332659912  0.9862487978512012  0.6439645625692506  1.0000
  Al  Al402     1.0  0.2269536210025534  0.030846834632250533  0.16168327796237233  1.0000
  P   P402      1.0  0.33010399848467903  0.984447513508758  0.16057585825030143  1.0000
  Al  Al403     1.0  0.23186504242718264  0.02802260415818685  0.6782945736434535  1.0000
  P   P403      1.0  0.3354940711271521  0.9827023902782097  0.6771871539313826  1.0000
  Al  Al404     1.0  0.2368056728222846  0.0252497879940802  0.1949058693245043  1.0000
  P   P404      1.0  0.34090206403210255  0.9810136182625301  0.1937984496124334  1.0000
  Al  Al405     1.0  0.24177497398602044  0.022528688193441584  0.7115171650055854  1.0000
  P   P405      1.0  0.34632738808609825  0.979381381426139  0.7104097452935145  1.0000
  Al  Al406     1.0  0.24677240459333327  0.019859601176120914  0.22812846068663625  1.0000
  P   P406      1.0  0.3517694522877588  0.9778058575748622  0.22702104097456535  1.0000
  Al  Al407     1.0  0.2517974202549191  0.017242817696015145  0.7447397563676866  1.0000
  P   P407      1.0  0.35722766381213494  0.9762872183365625  0.7436323366556157  1.0000
  Al  Al408     1.0  0.2568494735765278  0.014678622809396025  0.2613510520487682  1.0000
  P   P408      1.0  0.36270142807528877  0.9748256291424429  0.26024363233669734  1.0000
  Al  Al409     1.0  0.26192801421859235  0.012167295843858561  0.7779623477298185  1.0000
  P   P409      1.0  0.3681901487990599  0.9734212492090265  0.7768549280177476  1.0000
  Al  Al410     1.0  0.26703248895618154  0.009709110367891417  0.29457364341090014  1.0000
  P   P410      1.0  0.373693228076026  0.9720742315208118  0.2934662236988293  1.0000
  Al  Al411     1.0  0.27216234173926196  0.007304334161077453  0.8111849390919506  1.0000
  P   P411      1.0  0.37921006643463145  0.9707847228136077  0.8100775193798796  1.0000
  Al  Al412     1.0  0.2773170137532735  0.00495322918492196  0.3277962347730321  1.0000
  P   P412      1.0  0.38474006290449136  0.9695528635585489  0.32668881506096126  1.0000
  Al  Al413     1.0  0.282495943480002  0.002656051554317518  0.8444075304540825  1.0000
  P   P413      1.0  0.39028261508185774  0.9683787879467936  0.8433001107420115  1.0000
  Al  Al414     1.0  0.2876985667587463  0.0004130515096440135  0.36101882613513325  1.0000
  P   P414      1.0  0.3958371191952386  0.9672626238749066  0.3599114064230624  1.0000
  Al  Al415     1.0  0.2929243168477766  0.9982244733895085  0.8776301218162144  1.0000
  P   P415      1.0  0.40140297017117466  0.9662044929309259  0.8765227021041434  1.0000
  Al  Al416     1.0  0.29817262448607124  0.9960905556041287  0.3942414174972652  1.0000
  P   P416      1.0  0.4069795617001479  0.9652045103811182  0.39313399778519437  1.0000
  Al  Al417     1.0  0.30344291795532663  0.9940115306093629  0.9108527131783464  1.0000
  P   P417      1.0  0.41256628630263104  0.9642627851574219  0.9097452934662754  1.0000
  Al  Al418     1.0  0.3087346231422399  0.9919876248813863  0.42746400885939717  1.0000
  P   P418      1.0  0.41816253539526316  0.9633794198455816  0.4263565891473263  1.0000
  Al  Al419     1.0  0.314047163601046  0.990019058892021  0.9440753045404783  1.0000
  P   P419      1.0  0.4237676993571408  0.9625545106739728  0.9429678848284073  1.0000
  Al  Al420     1.0  0.3193799606163147  0.9881060470847188  0.46068660022152913  1.0000
  P   P420      1.0  0.4293811675962328  0.9617881475031187  0.4595791805094583  1.0000
  Al  Al421     1.0  0.32473243326599166  0.9862487978512011  0.9772978959025794  1.0000
  P   P421      1.0  0.43500232861589017  0.961080413815902  0.9761904761905086  1.0000
  Al  Al422     1.0  0.3301039984846786  0.9844475135087583  0.4939091915836611  1.0000
  P   P422      1.0  0.4406305700814597  0.960431386708471  0.49280177187159024  1.0000
  Al  Al423     1.0  0.3354940711271517  0.9827023902782098  0.010520487264711964  1.0000
  P   P423      1.0  0.4462652788869881  0.9598411368818403  0.00941306755264109  1.0000
  Al  Al424     1.0  0.34090206403210255  0.9810136182625301  0.5271317829457931  1.0000
  P   P424      1.0  0.4519058412220107  0.9593097286341896  0.5260243632337223  1.0000
  Al  Al425     1.0  0.34632738808609825  0.979381381426139  0.043743078626843915  1.0000
  P   P425      1.0  0.45755164263841286  0.9588372198538603  0.04263565891477304  1.0000
  Al  Al426     1.0  0.35176945228775924  0.977805857574862  0.5603543743078941  1.0000
  P   P426      1.0  0.46320206811736925  0.958423662013048  0.5592469545958233  1.0000
  Al  Al427     1.0  0.35722766381213544  0.9762872183365624  0.07696566998897587  1.0000
  P   P427      1.0  0.4688565021363368  0.9580691001621958  0.075858250276905  1.0000
  Al  Al428     1.0  0.3627014280752883  0.9748256291424429  0.5935769656700262  1.0000
  P   P428      1.0  0.4745143287361067  0.957773572925088  0.5924695459579553  1.0000
  Al  Al429     1.0  0.3681901487990599  0.9734212492090265  0.11018826135110782  1.0000
  P   P429      1.0  0.4801749315879044  0.9575371124946409  0.10908084163903696  1.0000
  Al  Al430     1.0  0.373693228076026  0.9720742315208118  0.6267995570321581  1.0000
  P   P430      1.0  0.4858376940605246  0.9573597446293973  0.6256921373200872  1.0000
  Al  Al431     1.0  0.37921006643463145  0.9707847228136077  0.14341085271323978  1.0000
  P   P431      1.0  0.4915019992875091  0.9572414886507199  0.1423034330011689  1.0000
  Al  Al432     1.0  0.3847400629044918  0.9695528635585487  0.6600221483942901  1.0000
  P   P432      1.0  0.49716723023434045  0.9571823574406862  0.6589147286822192  1.0000
  Al  Al433     1.0  0.39028261508185724  0.9683787879467936  0.17663344407534096  1.0000
  P   P433      1.0  0.5028327697656593  0.9571823574406862  0.17552602436327006  1.0000
  Al  Al434     1.0  0.3958371191952386  0.9672626238749066  0.693244739756422  1.0000
  P   P434      1.0  0.5084980007124917  0.9572414886507199  0.6921373200443511  1.0000
  Al  Al435     1.0  0.40140297017117466  0.9662044929309259  0.20985603543747292  1.0000
  P   P435      1.0  0.5141623059394762  0.9573597446293974  0.20874861572540204  1.0000
  Al  Al436     1.0  0.4069795617001479  0.9652045103811182  0.726467331118554  1.0000
  P   P436      1.0  0.5198250684120964  0.9575371124946409  0.7253599114064831  1.0000
  Al  Al437     1.0  0.4125662863026316  0.9642627851574219  0.24307862679960487  1.0000
  P   P437      1.0  0.5254856712638931  0.957773572925088  0.241971207087534  1.0000
  Al  Al438     1.0  0.4181625353952626  0.9633794198455817  0.7596899224806859  1.0000
  P   P438      1.0  0.5311434978636631  0.9580691001621958  0.758582502768615  1.0000
  Al  Al439     1.0  0.42376769935714026  0.9625545106739729  0.2763012181617368  1.0000
  P   P439      1.0  0.5367979318826306  0.958423662013048  0.27519379844966596  1.0000
  Al  Al440     1.0  0.4293811675962328  0.9617881475031187  0.7929125138427872  1.0000
  P   P440      1.0  0.5424483573615879  0.9588372198538604  0.7918050941307163  1.0000
  Al  Al441     1.0  0.43500232861589017  0.961080413815902  0.30952380952386876  1.0000
  P   P441      1.0  0.5480941587779901  0.9593097286341896  0.3084163898117979  1.0000
  Al  Al442     1.0  0.44063057008146017  0.9604313867084708  0.8261351052049191  1.0000
  P   P442      1.0  0.5537347211130118  0.9598411368818401  0.8250276854928482  1.0000
  Al  Al443     1.0  0.4462652788869885  0.9598411368818401  0.3427464008860007  1.0000
  P   P443      1.0  0.5593694299185401  0.960431386708471  0.3416389811739299  1.0000
  Al  Al444     1.0  0.4519058412220103  0.9593097286341896  0.859357696567051  1.0000
  P   P444      1.0  0.5649976713841096  0.961080413815902  0.8582502768549801  1.0000
  Al  Al445     1.0  0.45755164263841286  0.9588372198538603  0.3759689922481019  1.0000
  P   P445      1.0  0.570618832403768  0.9617881475031187  0.37486157253603103  1.0000
  Al  Al446     1.0  0.46320206811736925  0.958423662013048  0.892580287929183  1.0000
  P   P446      1.0  0.57623230064286  0.9625545106739729  0.8914728682171121  1.0000
  Al  Al447     1.0  0.4688565021363368  0.9580691001621958  0.40919158361023383  1.0000
  P   P447      1.0  0.5818374646047377  0.9633794198455817  0.408084163898163  1.0000
  Al  Al448     1.0  0.47451432873610716  0.957773572925088  0.9258028792913149  1.0000
  P   P448      1.0  0.5874337136973687  0.9642627851574219  0.924695459579244  1.0000
  Al  Al449     1.0  0.48017493158790386  0.9575371124946409  0.44241417497233504  1.0000
  P   P449      1.0  0.593020438299852  0.9652045103811182  0.4413067552602642  1.0000
  Al  Al450     1.0  0.4858376940605241  0.9573597446293974  0.9590254706534161  1.0000
  P   P450      1.0  0.5985970298288252  0.9662044929309259  0.9579180509413453  1.0000
  Al  Al451     1.0  0.4915019992875091  0.9572414886507199  0.475636766334467  1.0000
  P   P451      1.0  0.6041628808047621  0.9672626238749068  0.47452934662239615  1.0000
  Al  Al452     1.0  0.49716723023434045  0.9571823574406862  0.9922480620155172  1.0000
  P   P452      1.0  0.6097173849181431  0.9683787879467937  0.9911406423034463  1.0000
  Al  Al453     1.0  0.5028327697656598  0.9571823574406862  0.508859357696599  1.0000
  P   P453      1.0  0.6152599370955085  0.9695528635585487  0.5077519379845281  1.0000
  Al  Al454     1.0  0.5084980007124912  0.9572414886507199  0.02547065337764979  1.0000
  P   P454      1.0  0.6207899335653684  0.9707847228136077  0.024363233665578916  1.0000
  Al  Al455     1.0  0.5141623059394758  0.9573597446293974  0.5420819490587309  1.0000
  P   P455      1.0  0.6263067719239739  0.9720742315208117  0.54097452934666  1.0000
  Al  Al456     1.0  0.5198250684120964  0.9575371124946409  0.05869324473978175  1.0000
  P   P456      1.0  0.6318098512009409  0.9734212492090266  0.05758582502771087  1.0000
  Al  Al457     1.0  0.5254856712638931  0.957773572925088  0.5753045404208321  1.0000
  P   P457      1.0  0.637298571924712  0.974825629142443  0.5741971207087613  1.0000
  Al  Al458     1.0  0.5311434978636631  0.9580691001621958  0.0919158361019137  1.0000
  P   P458      1.0  0.6427723361878649  0.9762872183365625  0.09080841638984283  1.0000
  Al  Al459     1.0  0.536797931882631  0.958423662013048  0.608527131782964  1.0000
  P   P459      1.0  0.6482305477122412  0.9778058575748622  0.6074197120708931  1.0000
  Al  Al460     1.0  0.5424483573615875  0.9588372198538603  0.12513842746404566  1.0000
  P   P460      1.0  0.6536726119139016  0.9793813814261388  0.12403100775197479  1.0000
  Al  Al461     1.0  0.5480941587779901  0.9593097286341896  0.641749723145096  1.0000
  P   P461      1.0  0.6590979359678983  0.9810136182625302  0.6406423034330252  1.0000
  Al  Al462     1.0  0.5537347211130118  0.9598411368818401  0.15836101882617762  1.0000
  P   P462      1.0  0.6645059288728487  0.9827023902782099  0.15725359911410675  1.0000
  Al  Al463     1.0  0.5593694299185401  0.960431386708471  0.6749723145072279  1.0000
  P   P463      1.0  0.6698960015153217  0.9844475135087583  0.6738648947951571  1.0000
  Al  Al464     1.0  0.5649976713841102  0.961080413815902  0.1915836101882788  1.0000
  P   P464      1.0  0.6752675667340087  0.9862487978512011  0.1904761904762079  1.0000
  Al  Al465     1.0  0.5706188324037675  0.9617881475031187  0.70819490586936  1.0000
  P   P465      1.0  0.6806200393836852  0.9881060470847187  0.7070874861572891  1.0000
  Al  Al466     1.0  0.5762323006428595  0.9625545106739728  0.22480620155041073  1.0000
  P   P466      1.0  0.6859528363989539  0.990019058892021  0.22369878183833983  1.0000
  Al  Al467     1.0  0.5818374646047377  0.9633794198455817  0.7414174972314919  1.0000
  P   P467      1.0  0.6912653768577608  0.9919876248813865  0.740310077519421  1.0000
  Al  Al468     1.0  0.5874337136973687  0.9642627851574219  0.25802879291254266  1.0000
  P   P468      1.0  0.6965570820446737  0.9940115306093631  0.2569213732004718  1.0000
  Al  Al469     1.0  0.5930204382998524  0.9652045103811182  0.7746400885936238  1.0000
  P   P469      1.0  0.701827375513929  0.9960905556041288  0.7735326688815529  1.0000
  Al  Al470     1.0  0.5985970298288258  0.966204492930926  0.2912513842746746  1.0000
  P   P470      1.0  0.7070756831522234  0.9982244733895084  0.2901439645626038  1.0000
  Al  Al471     1.0  0.6041628808047617  0.9672626238749067  0.8078626799557249  1.0000
  P   P471      1.0  0.7123014332412536  0.0004130515096439247  0.8067552602436541  1.0000
  Al  Al472     1.0  0.6097173849181431  0.9683787879467937  0.3244739756368066  1.0000
  P   P472      1.0  0.7175040565199988  0.0026560515543178733  0.32336655592473573  1.0000
  Al  Al473     1.0  0.6152599370955085  0.9695528635585487  0.8410852713178568  1.0000
  P   P473      1.0  0.7226829862467268  0.004953229184922137  0.839977851605786  1.0000
  Al  Al474     1.0  0.6207899335653684  0.9707847228136077  0.35769656699893854  1.0000
  P   P474      1.0  0.7278376582607384  0.007304334161077542  0.3565891472868677  1.0000
  Al  Al475     1.0  0.6263067719239743  0.972074231520812  0.8743078626799888  1.0000
  P   P475      1.0  0.7329675110438187  0.009709110367891594  0.873200442967918  1.0000
  Al  Al476     1.0  0.6318098512009405  0.9734212492090266  0.39091915836103974  1.0000
  P   P476      1.0  0.7380719857814075  0.012167295843858561  0.3898117386489689  1.0000
  Al  Al477     1.0  0.637298571924712  0.974825629142443  0.9075304540421207  1.0000
  P   P477      1.0  0.7431505264234728  0.01467862280939638  0.9064230343300499  1.0000
  Al  Al478     1.0  0.6427723361878649  0.9762872183365625  0.4241417497231717  1.0000
  P   P478      1.0  0.7482025797450813  0.017242817696015236  0.42303433001110086  1.0000
  Al  Al479     1.0  0.6482305477122412  0.9778058575748622  0.9407530454042528  1.0000
  P   P479      1.0  0.753227595406667  0.01985960117612109  0.9396456256921819  1.0000
  Al  Al480     1.0  0.653672611913902  0.979381381426139  0.45736434108530366  1.0000
  P   P480      1.0  0.7582250260139798  0.02252868819344176  0.4562569213732328  1.0000
  Al  Al481     1.0  0.6590979359678978  0.9810136182625301  0.9739756367663847  1.0000
  P   P481      1.0  0.7631943271777153  0.02524978799408011  0.9728682170543138  1.0000
  Al  Al482     1.0  0.6645059288728482  0.9827023902782098  0.49058693244743556  1.0000
  P   P482      1.0  0.7681349575728172  0.028022604158186762  0.4894795127353647  1.0000
  Al  Al483     1.0  0.6698960015153217  0.9844475135087583  0.007198228128486452  1.0000
  P   P483      1.0  0.7730463789974473  0.030846834632250977  0.006090808416415577  1.0000
  Al  Al484     1.0  0.6752675667340087  0.9862487978512011  0.5238095238095675  1.0000
  P   P484      1.0  0.7779280564316098  0.033722171762001985  0.5227021040974966  1.0000
  Al  Al485     1.0  0.6806200393836856  0.9881060470847189  0.04042081949061841  1.0000
  P   P485      1.0  0.7827794580954389  0.03664830232592644  0.03931339977854753  1.0000
  Al  Al486     1.0  0.6859528363989544  0.990019058892021  0.5570321151716995  1.0000
  P   P486      1.0  0.7876000555071236  0.039624907569386816  0.5559246954596286  1.0000
  Al  Al487     1.0  0.6912653768577603  0.9919876248813864  0.07364341085275036  1.0000
  P   P487      1.0  0.7923893235404783  0.04265166323934482  0.0725359911406795  1.0000
  Al  Al488     1.0  0.6965570820446737  0.9940115306093631  0.5902547065338314  1.0000
  P   P488      1.0  0.7971467404821481  0.045728239619684086  0.5891472868217605  1.0000
  Al  Al489     1.0  0.701827375513929  0.9960905556041288  0.10686600221488231  1.0000
  P   P489      1.0  0.8018717880884367  0.04885430156712554  0.10575858250281145  1.0000
  Al  Al490     1.0  0.7070756831522234  0.9982244733895084  0.6234772978959326  1.0000
  P   P490      1.0  0.8065639516417671  0.05202950854773887  0.6223698781838618  1.0000
  Al  Al491     1.0  0.7123014332412541  0.0004130515096441023  0.14008859357701425  1.0000
  P   P491      1.0  0.811222720006747  0.05525351467403575  0.13898117386494338  1.0000
  Al  Al492     1.0  0.7175040565199983  0.0026560515543176955  0.6566998892580646  1.0000
  P   P492      1.0  0.8158475856858503  0.05852596874264995  0.6555924695459937  1.0000
  Al  Al493     1.0  0.7226829862467268  0.004953229184922137  0.1733111849391462  1.0000
  P   P493      1.0  0.8204380448747014  0.06184651427259524  0.17220376522707534  1.0000
  Al  Al494     1.0  0.7278376582607384  0.007304334161077542  0.6899224806201965  1.0000
  P   P494      1.0  0.8249935975169536  0.06521478954409625  0.6888150609081256  1.0000
  Al  Al495     1.0  0.7329675110438187  0.009709110367891594  0.2065337763012474  1.0000
  P   P495      1.0  0.8295137473587668  0.06863042763799508  0.20542635658917652  1.0000
  Al  Al496     1.0  0.7380719857814079  0.01216729584385874  0.7231450719823285  1.0000
  P   P496      1.0  0.8339980020028627  0.0720930564757194  0.7220376522702576  1.0000
  Al  Al497     1.0  0.7431505264234725  0.014678622809396203  0.23975636766337935  1.0000
  P   P497      1.0  0.8384458729621653  0.07560229885981462  0.23864894795130848  1.0000
  Al  Al498     1.0  0.7482025797450809  0.017242817696015055  0.7563676633444604  1.0000
  P   P498      1.0  0.8428568757130123  0.07915777251503364  0.7552602436323895  1.0000
  Al  Al499     1.0  0.753227595406667  0.01985960117612109  0.27297895902551134  1.0000
  P   P499      1.0  0.8472305297479384  0.08275909012997991  0.27187153931344044  1.0000
  Al  Al500     1.0  0.7582250260139798  0.02252868819344176  0.7895902547065924  1.0000
  P   P500      1.0  0.8515663586280147  0.08640585939929668  0.7884828349945215  1.0000
  Al  Al501     1.0  0.7631943271777157  0.025249787994080286  0.3062015503876433  1.0000
  P   P501      1.0  0.8558638900347539  0.09009768306640567  0.3050941306755724  1.0000
  Al  Al502     1.0  0.7681349575728177  0.028022604158187026  0.8228128460686935  1.0000
  P   P502      1.0  0.8601226558215589  0.09383415896677967  0.8217054263566227  1.0000
  Al  Al503     1.0  0.7730463789974469  0.03084683463225071  0.33942414174977525  1.0000
  P   P503      1.0  0.8643421920647203  0.09761488007175201  0.33831672203770435  1.0000
  Al  Al504     1.0  0.7779280564316098  0.033722171762001985  0.8560354374308256  1.0000
  P   P504      1.0  0.8685220391139545  0.10143943453285664  0.8549280177187547  1.0000
  Al  Al505     1.0  0.7827794580954389  0.03664830232592644  0.3726467331119072  1.0000
  P   P505      1.0  0.8726617416424718  0.10530740572669002  0.3715393133998363  1.0000
  Al  Al506     1.0  0.7876000555071236  0.039624907569386816  0.8892580287929575  1.0000
  P   P506      1.0  0.8767608486965814  0.1092183723002989  0.8881506090808866  1.0000
  Al  Al507     1.0  0.7923893235404788  0.042651663239345085  0.40586932447400836  1.0000
  P   P507      1.0  0.8808189137448128  0.11317190821707764  0.4047619047619375  1.0000
  Al  Al508     1.0  0.7971467404821476  0.04572823961968382  0.9224806201550895  1.0000
  P   P508      1.0  0.8848354947265586  0.11716758280317872  0.9213732004430186  1.0000
  Al  Al509     1.0  0.8018717880884367  0.04885430156712554  0.43909191583614027  1.0000
  P   P509      1.0  0.8888101541002311  0.1212049607944282  0.4379844961240694  1.0000
  Al  Al510     1.0  0.8065639516417671  0.05202950854773887  0.9557032115172214  1.0000
  P   P510      1.0  0.8927424588909219  0.12528360238373787  0.9545957918051505  1.0000
  Al  Al511     1.0  0.811222720006747  0.05525351467403575  0.4723145071982722  1.0000
  P   P511      1.0  0.8966319807375722  0.12940306326901965  0.4712070874862014  1.0000
  Al  Al512     1.0  0.8158475856858506  0.05852596874265022  0.9889258028793534  1.0000
  P   P512      1.0  0.900478295939633  0.13356289470158195  0.9878183831672825  1.0000
  Al  Al513     1.0  0.8204380448747008  0.06184651427259498  0.5055370985604042  1.0000
  P   P513      1.0  0.9042809855032206  0.13776264353501452  0.5044296788483333  1.0000
  Al  Al514     1.0  0.8249935975169532  0.0652147895440959  0.02214839424145507  1.0000
  P   P514      1.0  0.9080396351867599  0.1420018522745515  0.021040974529384193  1.0000
  Al  Al515     1.0  0.8295137473587668  0.06863042763799508  0.5387596899225362  1.0000
  P   P515      1.0  0.9117538355461097  0.14628005912690842  0.5376522702104652  1.0000
  Al  Al516     1.0  0.8339980020028627  0.0720930564757194  0.05537098560358702  1.0000
  P   P516      1.0  0.9154231819791623  0.15059679805058457  0.054263565891516145  1.0000
  Al  Al517     1.0  0.8384458729621653  0.07560229885981462  0.5719822812846681  1.0000
  P   P517      1.0  0.9190472747699223  0.15495159880663498  0.5708748615725973  1.0000
  Al  Al518     1.0  0.8428568757130126  0.07915777251503392  0.08859357696571898  1.0000
  P   P518      1.0  0.9226257191320469  0.1593439870098924  0.08748615725364811  1.0000
  Al  Al519     1.0  0.8472305297479381  0.08275909012997956  0.6052048726468001  1.0000
  P   P519      1.0  0.9261581252518518  0.1637734841806447  0.6040974529347293  1.0000
  Al  Al520     1.0  0.8515663586280147  0.08640585939929668  0.12181616832785094  1.0000
  P   P520      1.0  0.9296441083307756  0.16823960779675795  0.12070874861578007  1.0000
  Al  Al521     1.0  0.8558638900347539  0.09009768306640567  0.6384274640089013  1.0000
  P   P521      1.0  0.9330832886272953  0.1727418713462369  0.6373200442968304  1.0000
  Al  Al522     1.0  0.8601226558215589  0.09383415896677967  0.15503875968998287  1.0000
  P   P522      1.0  0.9364752914982968  0.17727978438022665  0.153931339977912  1.0000
  Al  Al523     1.0  0.8643421920647207  0.09761488007175237  0.6716500553710332  1.0000
  P   P523      1.0  0.9398197474398832  0.18185285256643652  0.6705426356589623  1.0000
  Al  Al524     1.0  0.8685220391139543  0.10143943453285634  0.18826135105211486  1.0000
  P   P524      1.0  0.943116292127627  0.18646057774298988  0.18715393134004396  1.0000
  Al  Al525     1.0  0.8726617416424715  0.10530740572668967  0.7048726467331652  1.0000
  P   P525      1.0  0.9463645664562581  0.19110245797269132  0.7037652270210943  1.0000
  Al  Al526     1.0  0.8767608486965814  0.1092183723002989  0.221483942414216  1.0000
  P   P526      1.0  0.9495642165787821  0.195777987597705  0.22037652270214514  1.0000
  Al  Al527     1.0  0.8808189137448128  0.11317190821707764  0.7380952380952971  1.0000
  P   P527      1.0  0.9527148939450243  0.2004866572946348  0.7369878183832262  1.0000
  Al  Al528     1.0  0.884835494726559  0.11716758280317907  0.254706533776348  1.0000
  P   P528      1.0  0.9558162553396026  0.20522795413001185  0.2535991140642771  1.0000
  Al  Al529     1.0  0.8888101541002307  0.1212049607944278  0.7713178294574291  1.0000
  P   P529      1.0  0.9588679629193119  0.21000136161616695  0.7702104097453583  1.0000
  Al  Al530     1.0  0.8927424588909215  0.1252836023837375  0.28792912513847996  1.0000
  P   P530      1.0  0.9618696842499281  0.2148063597674943  0.28682170542640906  1.0000
  Al  Al531     1.0  0.8966319807375722  0.12940306326901965  0.804540420819561  1.0000
  P   P531      1.0  0.9648210923424216  0.21964242515709687  0.8034330011074902  1.0000
  Al  Al532     1.0  0.900478295939633  0.13356289470158195  0.3211517165006119  1.0000
  P   P532      1.0  0.9677218656885757  0.22450903097380104  0.32004429678854107  1.0000
  Al  Al533     1.0  0.9042809855032206  0.13776264353501452  0.8377630121816622  1.0000
  P   P533      1.0  0.9705716882960123  0.22940564707955008  0.8366555924695913  1.0000
  Al  Al534     1.0  0.9080396351867602  0.14200185227455187  0.3543743078627439  1.0000
  P   P534      1.0  0.973370249722612  0.2343317400671503  0.35326688815067303  1.0000
  Al  Al535     1.0  0.9117538355461093  0.14628005912690806  0.8709856035437941  1.0000
  P   P535      1.0  0.9761172451103335  0.2392867733183781  0.8698781838317232  1.0000
  Al  Al536     1.0  0.9154231819791623  0.15059679805058457  0.3875968992248758  1.0000
  P   P536      1.0  0.9788123752184221  0.24427020706243663  0.38648947951280493  1.0000
  Al  Al537     1.0  0.9190472747699223  0.15495159880663498  0.9042081949059261  1.0000
  P   P537      1.0  0.9814553464560061  0.2492814984347519  0.9031007751938552  1.0000
  Al  Al538     1.0  0.9226257191320469  0.1593439870098924  0.42081949058697693  1.0000
  P   P538      1.0  0.9840458709140805  0.25432010153611384  0.4197120708749061  1.0000
  Al  Al539     1.0  0.9261581252518521  0.16377348418064505  0.937430786268058  1.0000
  P   P539      1.0  0.9865836663968697  0.25938546749214025  0.9363233665559871  1.0000
  Al  Al540     1.0  0.9296441083307752  0.1682396077967576  0.4540420819491089  1.0000
  P   P540      1.0  0.9890684564525675  0.26447704451306825  0.45293466223703804  1.0000
  Al  Al541     1.0  0.9330832886272952  0.1727418713462365  0.9706533776301285  1.0000
  P   P541      1.0  0.9914999704034524  0.2695942779538631  0.9695459579180576  1.0000
  Al  Al542     1.0  0.9364752914982968  0.17727978438022665  0.48726467331124085  1.0000
  P   P542      1.0  0.9938779433753737  0.27473661037463865  0.48615725359917  1.0000
  Al  Al543     1.0  0.9398197474398832  0.18185285256643652  0.003875968992291731  1.0000
  P   P543      1.0  0.9962021163266045  0.2799034816013777  0.0027685492802208564  1.0000
  Al  Al544     1.0  0.9431162921276273  0.18646057774299032  0.5204872646733728  1.0000
  P   P544      1.0  0.9984722360760614  0.2850943287869595  0.519379844961302  1.0000
  Al  Al545     1.0  0.9463645664562584  0.19110245797269176  0.03709856035442369  1.0000
  P   P545      1.0  0.0006880553308838966  0.290308586472469  0.035991140642352815  1.0000
  Al  Al546     1.0  0.9495642165787818  0.19577798759770457  0.5537098560355048  1.0000
  P   P546      1.0  0.002849332713372288  0.29554568664879566  0.5526024363234339  1.0000
  Al  Al547     1.0  0.9527148939450243  0.2004866572946348  0.07032115171655563  1.0000
  P   P547      1.0  0.0049558327872831764  0.3008050588185095  0.06921373200448476  1.0000
  Al  Al548     1.0  0.9558162553396026  0.20522795413001185  0.5869324473975751  1.0000
  P   P548      1.0  0.007007326083474652  0.30608613005800417  0.5858250276855043  1.0000
  Al  Al549     1.0  0.9588679629193119  0.21000136161616695  0.10354374307868759  1.0000
  P   P549      1.0  0.009003589124905398  0.311388325079913  0.10243632336661672  1.0000
  Al  Al550     1.0  0.9618696842499284  0.21480635976749474  0.6201550387597687  1.0000
  P   P550      1.0  0.010944404450977219  0.3167110662957736  0.6190476190476979  1.0000
  Al  Al551     1.0  0.9648210923424214  0.21964242515709642  0.13676633444075798  1.0000
  P   P551      1.0  0.012829560641224758  0.3220537738789479  0.13565891472868713  1.0000
  Al  Al552     1.0  0.9677218656885757  0.22450903097380104  0.653377630121839  1.0000
  P   P552      1.0  0.01465885233834574  0.3274158658277857  0.6522702104097682  1.0000
  Al  Al553     1.0  0.9705716882960123  0.22940564707955008  0.16998892580295152  1.0000
  P   P553      1.0  0.016432080270571747  0.3327967580290206  0.16888150609088062  1.0000
  Al  Al554     1.0  0.973370249722612  0.2343317400671503  0.6866002214840327  1.0000
  P   P554      1.0  0.018149051273375516  0.3381958643214053  0.6854928017719618  1.0000
  Al  Al555     1.0  0.9761172451103338  0.23928677331837853  0.2032115171650219  1.0000
  P   P555      1.0  0.01980957831051322  0.34361259655956067  0.20210409745295102  1.0000
  Al  Al556     1.0  0.978812375218422  0.2442702070624362  0.7198228128461029  1.0000
  P   P556      1.0  0.021413480494398618  0.3490463646780456  0.7187153931340321  1.0000
  Al  Al557     1.0  0.9814553464560059  0.24928149843475145  0.23643410852721541  1.0000
  P   P557      1.0  0.02296058310580884  0.35449657675563534  0.2353266888151445  1.0000
  Al  Al558     1.0  0.9840458709140805  0.25432010153611384  0.753045404208235  1.0000
  P   P558      1.0  0.02445071761291584  0.35996263907980214  0.7519379844961641  1.0000
  Al  Al559     1.0  0.9865836663968697  0.25938546749214025  0.2696566998892858  1.0000
  P   P559      1.0  0.025883721689645922  0.36544395621138753  0.2685492801772149  1.0000
  Al  Al560     1.0  0.9890684564525677  0.2644770445130687  0.7862679955703669  1.0000
  P   P560      1.0  0.02725943923336338  0.3709399310494709  0.785160575858296  1.0000
  Al  Al561     1.0  0.9914999704034525  0.2695942779538636  0.30287929125147933  1.0000
  P   P561      1.0  0.02857772038187334  0.3764499648964104  0.3017718715394085  1.0000
  Al  Al562     1.0  0.9938779433753734  0.2747366103746382  0.8194905869324989  1.0000
  P   P562      1.0  0.029838421529748915  0.3819734575230627  0.818383167220428  1.0000
  Al  Al563     1.0  0.9962021163266045  0.2799034816013777  0.3361018826135497  1.0000
  P   P563      1.0  0.03104140534397337  0.3875098072341685  0.33499446290147883  1.0000
  Al  Al564     1.0  0.9984722360760614  0.2850943287869595  0.8527131782946308  1.0000
  P   P564      1.0  0.032186540778900596  0.3930584109338943  0.8516057585825599  1.0000
  Al  Al565     1.0  0.0006880553308838966  0.290308586472469  0.36932447397568163  1.0000
  P   P565      1.0  0.03327370309053079  0.3986186641915353  0.3682170542636108  1.0000
  Al  Al566     1.0  0.00284933271337251  0.2955456866487961  0.8859357696567628  1.0000
  P   P566      1.0  0.034302773850098944  0.40418996130735474  0.884828349944692  1.0000
  Al  Al567     1.0  0.0049558327872831764  0.300805058818509  0.4025470653378136  1.0000
  P   P567      1.0  0.03527364095697627  0.40977169537856606  0.40143964562574275  1.0000
  Al  Al568     1.0  0.007007326083474652  0.30608613005800417  0.9191583610188947  1.0000
  P   P568      1.0  0.03618619865088091  0.41536325836544574  0.9180509413068239  1.0000
  Al  Al569     1.0  0.009003589124905398  0.311388325079913  0.43576965669994555  1.0000
  P   P569      1.0  0.03704034752339913  0.4209640411575662  0.4346622369878747  1.0000
  Al  Al570     1.0  0.010944404450977219  0.3167110662957736  0.9523809523810267  1.0000
  P   P570      1.0  0.0378359945288147  0.4265734336401537  0.9512735326689559  1.0000
  Al  Al571     1.0  0.012829560641224758  0.32205377387894835  0.4689922480620775  1.0000
  P   P571      1.0  0.03857305299424474  0.4321908247605472  0.46788482835000667  1.0000
  Al  Al572     1.0  0.01465885233834574  0.32741586582778526  0.985603543743097  1.0000
  P   P572      1.0  0.03925144262907976  0.4378156025947629  0.9844961240310262  1.0000
  Al  Al573     1.0  0.016432080270571747  0.33279675802902015  0.5022148394242095  1.0000
  P   P573      1.0  0.03987108953373286  0.4434471544141543  0.5011074197121387  1.0000
  Al  Al574     1.0  0.018149051273375516  0.3381958643214053  0.01882613510526035  1.0000
  P   P574      1.0  0.040431926207686875  0.4490848667521594  0.017718715393189477  1.0000
  Al  Al575     1.0  0.01980957831051322  0.34361259655956067  0.5354374307863414  1.0000
  P   P575      1.0  0.04093389155685001  0.4547281254711246  0.5343300110742706  1.0000
  Al  Al576     1.0  0.021413480494398618  0.34904636467804606  0.0520487264673923  1.0000
  P   P576      1.0  0.041376930900208775  0.4603763158292104  0.05094130675532142  1.0000
  Al  Al577     1.0  0.02296058310580884  0.3544965767556358  0.5686600221484733  1.0000
  P   P577      1.0  0.041760995975787196  0.4660288225473539  0.5675526024364025  1.0000
  Al  Al578     1.0  0.02445071761291584  0.3599626390798017  0.08527131782952427  1.0000
  P   P578      1.0  0.04208604494590129  0.4716850298762948  0.0841638981174534  1.0000
  Al  Al579     1.0  0.025883721689645922  0.36544395621138753  0.6018826135105437  1.0000
  P   P579      1.0  0.04235204240171919  0.4773443216636517  0.6007751937984729  1.0000
  Al  Al580     1.0  0.02725943923336338  0.3709399310494709  0.11849390919165621  1.0000
  P   P580      1.0  0.042558959367115845  0.4830060814210388  0.11738648947958534  1.0000
  Al  Al581     1.0  0.02857772038187334  0.3764499648964104  0.6351052048727373  1.0000
  P   P581      1.0  0.0427067733018327  0.4886696923912274  0.6339977851606664  1.0000
  Al  Al582     1.0  0.029838421529748915  0.38197345752306316  0.1517165005537266  1.0000
  P   P582      1.0  0.042795468103929535  0.4943345376153281  0.15060908084165572  1.0000
  Al  Al583     1.0  0.03104140534397337  0.38750980723416806  0.6683277962348076  1.0000
  P   P583      1.0  0.04282503411154148  0.49999999999999994  0.6672203765227368  1.0000
  Al  Al584     1.0  0.032186540778900596  0.3930584109338939  0.18493909191592012  1.0000
  P   P584      1.0  0.042795468103929535  0.5056654623846717  0.18383167220384924  1.0000
  Al  Al585     1.0  0.03327370309053079  0.3986186641915353  0.7015503875970012  1.0000
  P   P585      1.0  0.0427067733018327  0.5113303076087734  0.7004429678849303  1.0000
  Al  Al586     1.0  0.034302773850098944  0.40418996130735474  0.2181616832779905  1.0000
  P   P586      1.0  0.042558959367115845  0.5169939185789619  0.21705426356591961  1.0000
  Al  Al587     1.0  0.03527364095697627  0.4097716953785665  0.7347729789590717  1.0000
  P   P587      1.0  0.04235204240171919  0.5226556783363491  0.7336655592470007  1.0000
  Al  Al588     1.0  0.036186198650880685  0.4153632583654453  0.25138427464018404  1.0000
  P   P588      1.0  0.04208604494590129  0.5283149701237051  0.25027685492811313  1.0000
  Al  Al589     1.0  0.03704034752339891  0.4209640411575657  0.7679955703212035  1.0000
  P   P589      1.0  0.041760995975787196  0.5339711774526459  0.7668881506091326  1.0000
  Al  Al590     1.0  0.0378359945288147  0.4265734336401537  0.2846068660022544  1.0000
  P   P590      1.0  0.041376930900208775  0.5396236841707903  0.28349944629018353  1.0000
  Al  Al591     1.0  0.03857305299424474  0.4321908247605472  0.8012181616833356  1.0000
  P   P591      1.0  0.04093389155684979  0.5452718745288762  0.8001107419712646  1.0000
  Al  Al592     1.0  0.03925144262907976  0.4378156025947629  0.31782945736444795  1.0000
  P   P592      1.0  0.040431926207686875  0.5509151332478414  0.31672203765237705  1.0000
  Al  Al593     1.0  0.03987108953373286  0.44344715441415483  0.8344407530454675  1.0000
  P   P593      1.0  0.03987108953373286  0.5565528455858455  0.8333333333333965  1.0000
  Al  Al594     1.0  0.040431926207686875  0.449084866752159  0.3510520487265183  1.0000
  P   P594      1.0  0.03925144262907998  0.5621843974052368  0.34994462901444745  1.0000
  Al  Al595     1.0  0.04093389155685001  0.4547281254711246  0.8676633444075995  1.0000
  P   P595      1.0  0.03857305299424452  0.5678091752394535  0.8665559246955286  1.0000
  Al  Al596     1.0  0.041376930900208775  0.4603763158292104  0.38427464008865025  1.0000
  P   P596      1.0  0.0378359945288147  0.573426566359847  0.3831672203765794  1.0000
  Al  Al597     1.0  0.041760995975787196  0.4660288225473539  0.9008859357697314  1.0000
  P   P597      1.0  0.03704034752339891  0.5790359588424345  0.8997785160576605  1.0000
  Al  Al598     1.0  0.04208604494590129  0.47168502987629524  0.4174972314507822  1.0000
  P   P598      1.0  0.036186198650880685  0.584636741634555  0.41638981173871137  1.0000
  Al  Al599     1.0  0.04235204240171919  0.4773443216636512  0.9341085271318633  1.0000
  P   P599      1.0  0.03527364095697627  0.5902283046214337  0.9330011074197924  1.0000
  Al  Al600     1.0  0.042558959367115845  0.48300608142103835  0.4507198228128526  1.0000
  P   P600      1.0  0.034302773850098944  0.595810038692645  0.44961240310078177  1.0000
  Al  Al601     1.0  0.0427067733018327  0.4886696923912274  0.9673311184939337  1.0000
  P   P601      1.0  0.03327370309053057  0.6013813358084654  0.9662236987818629  1.0000
  Al  Al602     1.0  0.042795468103929535  0.4943345376153281  0.48394241417504613  1.0000
  P   P602      1.0  0.032186540778900374  0.6069415890661065  0.4828349944629753  1.0000
